data_global 


# 1. PROCESSING SUMMARY (IUCr Office Use Only)

_journal_date_recd_electronic            ?
_journal_date_to_coeditor                ?
_journal_date_from_coeditor              ?
_journal_date_accepted                   ?
_journal_date_printers_first             ?
_journal_date_printers_final             ?
_journal_date_proofs_out                 ?
_journal_date_proofs_in                  ?
_journal_coeditor_name                   ?
_journal_coeditor_code                   ?
_journal_coeditor_notes
; ?
;
_journal_techeditor_code                 ?
_journal_paper_category                  ?
_journal_techeditor_notes
; ?
;
_journal_coden_ASTM                      ?
_journal_name_full                       ?
_journal_year                            ?
_journal_volume                          ?
_journal_issue                           ?
_journal_page_first                      ?
_journal_page_last                       ?
_journal_suppl_publ_number               ?
_journal_suppl_publ_pages                ?

#=======================================================================

# 2. SUBMISSION DETAILS

_publ_contact_author_name                'Mercouri G. Kanatzidis'
_publ_contact_author_address
;    Department of Chemistry
     2145 Sheridan Road
   Northwestern University
   Evanston, IL 60208-3113
           USA
;
_publ_contact_author_email               m-kanatzidis@northwestern.edu
_publ_contact_author_fax                 '847-491-5937'
_publ_contact_author_phone               '847-467-1541'
_publ_requested_category                 ?

_publ_contact_letter
; ?
;

#=======================================================================

# 3. TITLE AND AUTHOR LIST

_publ_section_title
; ?
;
_publ_section_title_footnote
; ?
;
loop_
 _publ_author_name
 _publ_author_footnote
 _publ_author_address
; ?      # name
;
; ?      # footnote
;
; ?      # address
;

#=======================================================================

# 4. TEXT

_publ_section_synopsis
; ?
;
_publ_section_abstract
; ?
;
_publ_section_comment
; ?
;
_publ_section_introduction
; ?
;
_publ_section_experimental
; ?
;
_publ_section_exptl_prep
; ?
;
_publ_section_exptl_refinement
; ?
;
_publ_section_exptl_solution
; ?
;
_publ_section_discussion
; ?
;
_publ_section_acknowledgements
; ?
;
_publ_section_references
;
Petricek, V., Dusek, M. & Palatinus L. (2014). Z. Kristallogr. 229(5), 345-352.

Palatinus L. & Chapuis G. (2007). J. Appl. Cryst. 40, 786-790.

# enable this reference if Diamond ver. 2 was used for visualization
#Brandenburg, K. (1999). DIAMOND. Version. 2.1c.
#Crystal Impact GbR, Bonn, Germany.

# enable this reference if Diamond ver. 3 was used for visualization
#Brandenburg, K. & Putz, H. (2005). DIAMOND Version 3.
#Crystal Impact GbR, Postfach 1251, D-53002 Bonn, Germany.

# enable this reference if SIR97 was used for solving of the structure
#Altomare, A., Burla, M. C., Camalli, M., Cascarano, G., Giacovazzo, C.,
#Guagliardi, A., Moliterni, A. G. G., Polidori, G., Spagna, R. (1997).
#SIR97. A Package for Crystal Structure Solution by Direct Methods
#and Refinement, Bari, Rome, Italy.

# use this reference if SIR2002 was used for solving of the structure
#Burla, M.C., Camalli, M., Carrozzini, B., Cascarano, G., Giacovazzo, C.,
#Polidori, G., Spagna, R.
#SIR2002: the program, J. Appl. Cryst, (2003). 36, 1103


# use this reference if SIR2011 was used for solving of the structure
#Burla, M.C., Caliandro, R., Camalli, M., Carrozzini, B., Cascarano,
#G.L., Giacovazzo, C., Mallamo. M., Mazzone, A., Polidori, G., Spagna, R.
#SIR2011: a new package for crystal structure determination and refinement,
#J.Appl.Cryst. (2012) 45, 357-361

# enable this reference if bond valences were calculated
#Brown, I. D. (1996). J. Appl. Cryst. 29, 479-480.

# enable this reference if Xshape wase used for crystal shape refinement
#Stoe & Cie (1998). X-SHAPE. Stoe & Cie, Darmstadt, Germany.


# enable this reference if Flack coefficient was refined
#Flack, H. D. (1983). Acta Cryst. A39, 876-881.
;
_publ_section_figure_captions
; ?
;
_publ_section_table_legends
; ?
;

#=======================================================================
data_I
#=======================================================================

# 5. CHEMICAL DATA

_chemical_name_systematic
; ?
;
_chemical_name_common                    'Ethylammonium Lead Bromide'
_chemical_formula_moiety                 4(C2H5NH3),Pb3Br10 
_chemical_formula_structural             ?
_chemical_formula_analytical             ?
_chemical_formula_iupac                  ?
_chemical_formula_sum                    'C8 H32 Br10 N4 Pb3'
_chemical_formula_weight                 1605
_chemical_melting_point                  ?
_chemical_compound_source                ?
_chemical_absolute_configuration         ?

#=======================================================================

# 6. CRYSTAL DATA

_symmetry_cell_setting                   orthorhombic
_symmetry_space_group_name_H-M           'C 2 c b'
_symmetry_space_group_name_Hall          'C -2bc 2'
_symmetry_Int_Tables_number              41

loop_
 _space_group_symop_id
 _space_group_symop_operation_xyz
 1   x,y,z
 2   x,-y,-z
 3   x,y+1/2,-z+1/2
 4   x,-y+1/2,z+1/2
 5   x+1/2,y+1/2,z
 6   x+1/2,-y+1/2,-z
 7   x+1/2,y,-z+1/2
 8   x+1/2,-y,z+1/2

_cell_length_a                           8.4267(12)
_cell_length_b                           46.351(5)
_cell_length_c                           8.4298(10)
_cell_angle_alpha                        90
_cell_angle_beta                         90
_cell_angle_gamma                        90
_cell_volume                             3292.5(7)

loop_
 _twin_individual_id
 _twin_individual_mass_fraction_refined
 _twin_individual_twin_matrix_11
 _twin_individual_twin_matrix_12
 _twin_individual_twin_matrix_13
 _twin_individual_twin_matrix_21
 _twin_individual_twin_matrix_22
 _twin_individual_twin_matrix_23
 _twin_individual_twin_matrix_31
 _twin_individual_twin_matrix_32
 _twin_individual_twin_matrix_33
1 0.584(9)
1 0 0
0 1 0
0 0 1
2 0.416(9)
0 0 1
0 -1 0
1 0 0

_cell_formula_units_Z                    4

_cell_measurement_reflns_used            3297
_cell_measurement_theta_min              2.63
_cell_measurement_theta_max              26.21
_cell_measurement_temperature            293
_cell_special_details
; ?
;

_exptl_crystal_density_diffrn            3.2459
_exptl_crystal_density_meas              ?
_exptl_crystal_density_method            ?
_exptl_crystal_F_000                     2816

_exptl_absorpt_coefficient_mu            27.443
_exptl_crystal_description               plate
_exptl_crystal_size_max                  0.1045 
_exptl_crystal_size_mid                  0.0689 
_exptl_crystal_size_min                  0.0224 
_exptl_crystal_size_rad                  ?
_exptl_crystal_colour                    yellow
_exptl_absorpt_correction_type           integration
_exptl_absorpt_process_details           ?
_exptl_absorpt_correction_T_min  0.0421
_exptl_absorpt_correction_T_max  0.1717
loop_
 _exptl_crystal_face_index_h
 _exptl_crystal_face_index_k
 _exptl_crystal_face_index_l
 _exptl_crystal_face_perp_dist
 ? ? ? ?

#=======================================================================

# 7. EXPERIMENTAL DATA

_exptl_special_details                   ?

_diffrn_ambient_temperature              293
_diffrn_source                           'sealed X-ray tube, 12 x 0.4 mm long-fine focus'
_diffrn_source_power                     1.20
_diffrn_source_voltage                   50
_diffrn_source_current                   40
_diffrn_radiation_type                   'Mo K\a'
_diffrn_radiation_source                 'X-ray tube'
_diffrn_radiation_wavelength             0.71073
_diffrn_radiation_monochromator          graphite
_diffrn_measurement_device               '2-circle goniometer'
_diffrn_measurement_device_type          'IPDS Stoe'
_diffrn_detector                         'image plate (34 cm diameter)'
_diffrn_detector_area_resol_mean         6.67
_diffrn_measurement_method               'rotation method'
_diffrn_measurement_specimen_support     ?

_diffrn_reflns_number                    14688
_diffrn_reflns_theta_min                 3.45
_diffrn_reflns_theta_max                 29.15
_diffrn_reflns_theta_full                29.15
_diffrn_measured_fraction_theta_max      0.94
_diffrn_measured_fraction_theta_full     0.94
_diffrn_reflns_av_R_equivalents          0.073
_diffrn_reflns_av_unetI/netI             0.0595
_diffrn_reflns_limit_h_min               -11
_diffrn_reflns_limit_h_max               11
_diffrn_reflns_limit_k_min               -62
_diffrn_reflns_limit_k_max               63
_diffrn_reflns_limit_l_min               -10
_diffrn_reflns_limit_l_max               11
_diffrn_reflns_reduction_process         ?

_diffrn_standards_number                 ?
_diffrn_standards_interval_count         ?
_diffrn_standards_interval_time          ?
_diffrn_standards_decay_%                ?
loop_
_diffrn_standard_refln_index_h
_diffrn_standard_refln_index_k
_diffrn_standard_refln_index_l
  ? ? ?

_diffrn_radiation_probe                  X-ray

#=======================================================================

# 8. REFINEMENT DATA

_refine_special_details
; ?
;

_reflns_number_total                     5228
_reflns_number_gt                        3137
_reflns_threshold_expression             'I>2\s(I)'

_refine_ls_structure_factor_coef         Fsqd
_refine_ls_R_factor_gt                   0.0964
_refine_ls_wR_factor_gt                  0.1753
_refine_ls_R_factor_all                  0.1496
_refine_ls_wR_factor_ref                 0.1854
_refine_ls_goodness_of_fit_ref           3.14
_refine_ls_goodness_of_fit_gt            3.85
_refine_ls_restrained_S_gt               ?
_refine_ls_restrained_S_all              ?
_refine_ls_number_reflns                 5228
_refine_ls_number_parameters             81
_refine_ls_number_restraints             6
_refine_ls_number_constraints            69
_refine_ls_weighting_scheme              sigma
_refine_ls_weighting_details             'w=1/(\s^2^(I)+0.0004I^2^)'
_refine_ls_hydrogen_treatment            'constr'
_refine_ls_shift/su_max                  0.0174
_refine_ls_shift/su_mean                 0.0023
_refine_diff_density_max                 2.83
_refine_diff_density_min                 -3.84
_refine_ls_extinction_method             'none'
_refine_ls_extinction_coef               ?
_refine_ls_abs_structure_details
;  1442 of Friedel pairs used in the refinement
;
_refine_ls_abs_structure_Flack           ?
_refine_ls_abs_structure_Rogers          ?

loop_
 _atom_type_symbol
 _atom_type_scat_dispersion_real
 _atom_type_scat_dispersion_imag
 _atom_type_scat_source
 C    0.0033  0.0016
 'International Tables Vol C tables 4.2.6.8 and 6.1.1.1'
 H    0.0000  0.0000
 'International Tables Vol C tables 4.2.6.8 and 6.1.1.1'
 Br  -0.2901  2.4595
 'International Tables Vol C tables 4.2.6.8 and 6.1.1.1'
 N    0.0061  0.0033
 'International Tables Vol C tables 4.2.6.8 and 6.1.1.1'
 Pb  -3.3944 10.1111
 'International Tables Vol C tables 4.2.6.8 and 6.1.1.1'

_computing_data_collection               ?
_computing_cell_refinement               ?
_computing_data_reduction                ?
_computing_structure_solution            ?
_computing_structure_refinement          ?
_computing_molecular_graphics            ?
_computing_publication_material          ?

loop_
 _restr_distance_atom_site_label_1
 _restr_distance_site_symmetry_1
 _restr_distance_atom_site_label_2
 _restr_distance_site_symmetry_2
 _restr_distance_target
 _restr_distance_target_weight_param
N1 . C2 . 1.5 0.001
C2 . C1 . 1.5 0.001
N2 . C4 . 1.5 0.001
C4 . C3 . 1.5 0.001

loop_
 _restr_angle_atom_site_label_1
 _restr_angle_site_symmetry_1
 _restr_angle_atom_site_label_2
 _restr_angle_site_symmetry_2
 _restr_angle_atom_site_label_3
 _restr_angle_site_symmetry_3
 _restr_angle_target
 _restr_angle_target_weight_param
N1 . C2 . C1 . 109.47 0.01
N2 . C4 . C3 . 109.47 0.01

loop_
 _restr_torsion_atom_site_label_1
 _restr_torsion_site_symmetry_1
 _restr_torsion_atom_site_label_2
 _restr_torsion_site_symmetry_2
 _restr_torsion_atom_site_label_3
 _restr_torsion_site_symmetry_3
 _restr_torsion_atom_site_label_4
 _restr_torsion_site_symmetry_4
 _restr_torsion_angle_target
 _restr_torsion_weight_param
 ? ? ? ? ? ? ? ? ? ?

loop_
 _restr_equal_distance_atom_site_label_1
 _restr_equal_distance_site_symmetry_1
 _restr_equal_distance_atom_site_label_2
 _restr_equal_distance_site_symmetry_2
 _restr_equal_distance_class_class_id
 _restr_equal_distance_class_target_weight_param
 ? ? ? ? ? ?

loop_
 _restr_equal_angle_atom_site_label_1
 _restr_equal_angle_site_symmetry_1
 _restr_equal_angle_atom_site_label_2
 _restr_equal_angle_site_symmetry_2
 _restr_equal_angle_atom_site_label_3
 _restr_equal_angle_site_symmetry_3
 _restr_equal_angle_class_class_id
 _restr_equal_angle_class_target_weight_param
 ? ? ? ? ? ? ? ?

loop_
 _restr_equal_torsion_atom_site_label_1
 _restr_equal_torsion_site_symmetry_1
 _restr_equal_torsion_atom_site_label_2
 _restr_equal_torsion_site_symmetry_2
 _restr_equal_torsion_atom_site_label_3
 _restr_equal_torsion_site_symmetry_3
 _restr_equal_torsion_atom_site_label_4
 _restr_equal_torsion_site_symmetry_4
 _restr_equal_torsion_class_class_id
 _restr_equal_torsion_class_target_weight_param
 ? ? ? ? ? ? ? ? ? ?


#=======================================================================

# 9. ATOMIC COORDINATES AND DISPLACEMENT PARAMETERS

loop_
 _atom_site_label
 _atom_site_type_symbol
 _atom_site_fract_x
 _atom_site_fract_y
 _atom_site_fract_z
 _atom_site_adp_type
 _atom_site_U_iso_or_equiv
 _atom_site_site_symmetry_multiplicity
 _atom_site_occupancy
 _atom_site_calc_flag
 _atom_site_refinement_flags
 _atom_site_disorder_assembly
 _atom_site_disorder_group
  Pb1 Pb 0.0385(4) 0 0 Uani 0.0577(11) 4 1 d . . .
  Pb2 Pb 0.0499(3) 0.13567(2) 0.0001(3) Uani 0.0446(6) 8 1 d . . .
  Br1 Br 0.0498(12) 0.06419(6) 0.0020(12) Uani 0.085(3) 8 1 d . . .
  Br2 Br 0.2435(8) 0.00446(12) 0.2969(8) Uani 0.065(2) 8 1 d . . .
  Br3 Br -0.1944(8) 0.1420(2) -0.2340(8) Uani 0.114(4) 8 1 d . . .
  Br4 Br 0.2826(10) 0.1345(3) 0.2485(13) Uani 0.164(6) 8 1 d . . .
  Br5 Br 0.048(2) 0.19399(11) -0.0583(8) Uani 0.147(5) 8 1 d . . .
  N1 N 0.050(6) 0.3201(5) -0.040(4) Uiso 0.080(8) 8 1 d . . .
  C2 C 0.005(5) 0.2912(6) 0.026(3) Uiso 0.080(8) 8 1 d . . .
  C1 C 0.023(7) 0.2686(6) -0.099(5) Uiso 0.080(8) 8 1 d . . .
  N2 N 0.094(4) 0.4287(7) 0.074(5) Uiso 0.075(8) 8 1 d . . .
  C4 C -0.062(3) 0.4436(8) 0.102(7) Uiso 0.075(8) 8 1 d . . .
  C3 C -0.032(5) 0.4744(8) 0.148(6) Uiso 0.075(8) 8 1 d . . .
  H1n1 H -0.02279 0.332665 -0.016814 Uiso 0.0955 8 1 d . . .
  H2n1 H 0.140349 0.32554 -0.000258 Uiso 0.0955 8 1 d . . .
  H3n1 H 0.058807 0.318787 -0.143018 Uiso 0.0955 8 1 d . . .
  H1c2 H 0.073194 0.286733 0.114433 Uiso 0.0955 8 1 d . . .
  H2c2 H -0.103079 0.291767 0.061813 Uiso 0.0955 8 1 d . . .
  H1c1 H 0.005579 0.249863 -0.053553 Uiso 0.0955 8 1 d . . .
  H2c1 H -0.05297 0.27189 -0.18197 Uiso 0.0955 8 1 d . . .
  H3c1 H 0.128363 0.269432 -0.142671 Uiso 0.0955 8 1 d . . .
  H1n2 H 0.076941 0.410501 0.055319 Uiso 0.0899 8 1 d . . .
  H2n2 H 0.140703 0.436452 -0.007777 Uiso 0.0899 8 1 d . . .
  H3n2 H 0.153416 0.430581 0.157148 Uiso 0.0899 8 1 d . . .
  H1c4 H -0.12419 0.44305 0.00631 Uiso 0.0899 8 1 d . . .
  H2c4 H -0.118177 0.433985 0.185375 Uiso 0.0899 8 1 d . . .
  H1c3 H -0.129307 0.482862 0.185433 Uiso 0.0899 8 1 d . . .
  H2c3 H 0.046102 0.475078 0.230224 Uiso 0.0899 8 1 d . . .
  H3c3 H 0.004931 0.484959 0.057196 Uiso 0.0899 8 1 d . . .

loop_
 _atom_site_aniso_label
 _atom_site_aniso_type_symbol
 _atom_site_aniso_U_11
 _atom_site_aniso_U_22
 _atom_site_aniso_U_33
 _atom_site_aniso_U_12
 _atom_site_aniso_U_13
 _atom_site_aniso_U_23
 Pb1 Pb 0.0449(19) 0.0498(8) 0.078(2) 0 0 -0.010(2)
 Pb2 Pb 0.0327(12) 0.0585(6) 0.0427(14) 0.0027(11) 0.0021(9) -0.0048(13)
 Br1 Br 0.090(5) 0.0523(16) 0.113(7) 0.005(5) -0.025(5) 0.008(5)
 Br2 Br 0.072(3) 0.055(4) 0.069(4) 0.042(4) 0.0093(18) 0.022(3)
 Br3 Br 0.023(3) 0.282(10) 0.036(4) 0.034(5) -0.020(2) -0.049(5)
 Br4 Br 0.066(7) 0.355(14) 0.070(7) -0.075(8) -0.043(4) 0.035(8)
 Br5 Br 0.330(15) 0.058(3) 0.054(3) 0.063(9) -0.001(8) 0.001(3)

loop_
 _jana_atom_site_ADP_C_label
 _jana_atom_site_ADP_C_type_symbol
 _jana_atom_site_ADP_C_111
 _jana_atom_site_ADP_C_112
 _jana_atom_site_ADP_C_113
 _jana_atom_site_ADP_C_122
 _jana_atom_site_ADP_C_123
 _jana_atom_site_ADP_C_133
 _jana_atom_site_ADP_C_222
 _jana_atom_site_ADP_C_223
 _jana_atom_site_ADP_C_233
 _jana_atom_site_ADP_C_333
 ? ? ? ? ? ? ? ? ? ? ? ?

loop_
 _jana_atom_site_ADP_D_label
 _jana_atom_site_ADP_D_type_symbol
 _jana_atom_site_ADP_D_1111
 _jana_atom_site_ADP_D_1112
 _jana_atom_site_ADP_D_1113
 _jana_atom_site_ADP_D_1122
 _jana_atom_site_ADP_D_1123
 _jana_atom_site_ADP_D_1133
 _jana_atom_site_ADP_D_1222
 _jana_atom_site_ADP_D_1223
 _jana_atom_site_ADP_D_1233
 _jana_atom_site_ADP_D_1333
 _jana_atom_site_ADP_D_2222
 _jana_atom_site_ADP_D_2223
 _jana_atom_site_ADP_D_2233
 _jana_atom_site_ADP_D_2333
 _jana_atom_site_ADP_D_3333
 ? ? ? ? ? ? ? ? ? ? ? ? ? ? ? ? ?

loop_
 _jana_atom_site_ADP_E_label
 _jana_atom_site_ADP_E_type_symbol
 _jana_atom_site_ADP_E_11111
 _jana_atom_site_ADP_E_11112
 _jana_atom_site_ADP_E_11113
 _jana_atom_site_ADP_E_11122
 _jana_atom_site_ADP_E_11123
 _jana_atom_site_ADP_E_11133
 _jana_atom_site_ADP_E_11222
 _jana_atom_site_ADP_E_11223
 _jana_atom_site_ADP_E_11233
 _jana_atom_site_ADP_E_11333
 _jana_atom_site_ADP_E_12222
 _jana_atom_site_ADP_E_12223
 _jana_atom_site_ADP_E_12233
 _jana_atom_site_ADP_E_12333
 _jana_atom_site_ADP_E_13333
 _jana_atom_site_ADP_E_22222
 _jana_atom_site_ADP_E_22223
 _jana_atom_site_ADP_E_22233
 _jana_atom_site_ADP_E_22333
 _jana_atom_site_ADP_E_23333
 _jana_atom_site_ADP_E_33333
 ? ? ? ? ? ? ? ? ? ? ? ? ? ? ? ? ? ? ? ? ? ? ?

loop_
 _jana_atom_site_ADP_F_label
 _jana_atom_site_ADP_F_type_symbol
 _jana_atom_site_ADP_F_111111
 _jana_atom_site_ADP_F_111112
 _jana_atom_site_ADP_F_111113
 _jana_atom_site_ADP_F_111122
 _jana_atom_site_ADP_F_111123
 _jana_atom_site_ADP_F_111133
 _jana_atom_site_ADP_F_111222
 _jana_atom_site_ADP_F_111223
 _jana_atom_site_ADP_F_111233
 _jana_atom_site_ADP_F_111333
 _jana_atom_site_ADP_F_112222
 _jana_atom_site_ADP_F_112223
 _jana_atom_site_ADP_F_112233
 _jana_atom_site_ADP_F_112333
 _jana_atom_site_ADP_F_113333
 _jana_atom_site_ADP_F_122222
 _jana_atom_site_ADP_F_122223
 _jana_atom_site_ADP_F_122233
 _jana_atom_site_ADP_F_122333
 _jana_atom_site_ADP_F_123333
 _jana_atom_site_ADP_F_133333
 _jana_atom_site_ADP_F_222222
 _jana_atom_site_ADP_F_222223
 _jana_atom_site_ADP_F_222233
 _jana_atom_site_ADP_F_222333
 _jana_atom_site_ADP_F_223333
 _jana_atom_site_ADP_F_233333
 _jana_atom_site_ADP_F_333333
 ? ? ? ? ? ? ? ? ? ? ? ? ? ? ? ? ? ? ? ? ? ? ? ? ? ? ? ? ? ?


#=======================================================================

# 10. MOLECULAR GEOMETRY


loop_
 _geom_bond_atom_site_label_1
 _geom_bond_atom_site_label_2
 _geom_bond_site_symmetry_1
 _geom_bond_site_symmetry_2
 _geom_bond_distance
 _geom_bond_publ_flag
  Pb1 Br1 . . 2.977(3) ?
  Pb1 Br1 . 2_555 2.977(3) ?
  Pb1 Br2 . . 3.049(7) ?
  Pb1 Br2 . 2_555 3.049(7) ?
  Pb1 Br2 . 7_455 3.025(7) ?
  Pb1 Br2 . 8_454 3.025(7) ?
  Pb2 Br1 . . 3.313(3) ?
  Pb2 Br3 . . 2.867(7) ?
  Pb2 Br3 . 7_554 3.124(7) ?
  Pb2 Br4 . . 2.870(10) ?
  Pb2 Br4 . 7_455 3.093(10) ?
  Pb2 Br5 . . 2.748(5) ?
  Br1 N2 . 6_455 3.91(3) ?
  Br1 N2 . 4_554 3.64(4) ?
  Br2 N2 . 3_545 3.89(3) ?
  Br2 H1c3 . 5_545 1.7417 ?
  Br3 N1 . 6_455 3.62(4) ?
  Br3 N1 . 4_554 3.74(4) ?
  Br4 N1 . 6_555 3.55(4) ?
  Br4 N1 . 4_555 3.38(4) ?
  N1 C2 . . 1.50(4) ?
  N1 H1n1 . . 0.87 ?
  N1 H2n1 . . 0.87 ?
  N1 H3n1 . . 0.87 ?
  C2 C1 . . 1.50(4) ?
  C2 H1c2 . . 0.96 ?
  C2 H2c2 . . 0.96 ?
  C1 H1c1 . . 0.96 ?
  C1 H2c1 . . 0.96 ?
  C1 H3c1 . . 0.96 ?
  N2 C4 . . 1.50(4) ?
  N2 H1n2 . . 0.87 ?
  N2 H2n2 . . 0.87 ?
  N2 H3n2 . . 0.87 ?
  C4 C3 . . 1.50(5) ?
  C4 H1c4 . . 0.96 ?
  C4 H2c4 . . 0.96 ?
  C3 H1c3 . . 0.96 ?
  C3 H2c3 . . 0.96 ?
  C3 H3c3 . . 0.96 ?

loop_
 _geom_angle_atom_site_label_1
 _geom_angle_atom_site_label_2
 _geom_angle_atom_site_label_3
 _geom_angle_site_symmetry_1
 _geom_angle_site_symmetry_2
 _geom_angle_site_symmetry_3
 _geom_angle
 _geom_angle_publ_flag
  Br1 Pb1 Br1 . . 2_555 176.3(3) ?
  Br1 Pb1 Br2 . . . 84.8(2) ?
  Br1 Pb1 Br2 . . 2_555 93.1(2) ?
  Br1 Pb1 Br2 . . 7_455 87.4(2) ?
  Br1 Pb1 Br2 . . 8_454 95.6(2) ?
  Br1 Pb1 Br2 2_555 . . 93.1(2) ?
  Br1 Pb1 Br2 2_555 . 2_555 84.8(2) ?
  Br1 Pb1 Br2 2_555 . 7_455 95.6(2) ?
  Br1 Pb1 Br2 2_555 . 8_454 87.4(2) ?
  Br2 Pb1 Br2 . . 2_555 110.9(2) ?
  Br2 Pb1 Br2 . . 7_455 89.80(18) ?
  Br2 Pb1 Br2 . . 8_454 159.23(19) ?
  Br2 Pb1 Br2 2_555 . 7_455 159.23(19) ?
  Br2 Pb1 Br2 2_555 . 8_454 89.80(18) ?
  Br2 Pb1 Br2 7_455 . 8_454 69.51(19) ?
  Br1 Pb2 Br3 . . . 96.1(3) ?
  Br1 Pb2 Br3 . . 7_554 95.6(3) ?
  Br1 Pb2 Br4 . . . 88.7(3) ?
  Br1 Pb2 Br4 . . 7_455 88.8(3) ?
  Br1 Pb2 Br5 . . . 170.0(2) ?
  Br3 Pb2 Br3 . . 7_554 89.51(19) ?
  Br3 Pb2 Br4 . . . 174.3(3) ?
  Br3 Pb2 Br4 . . 7_455 87.2(2) ?
  Br3 Pb2 Br5 . . . 76.8(4) ?
  Br3 Pb2 Br4 7_554 . . 93.1(2) ?
  Br3 Pb2 Br4 7_554 . 7_455 174.8(3) ?
  Br3 Pb2 Br5 7_554 . . 77.5(3) ?
  Br4 Pb2 Br4 . . 7_455 89.8(3) ?
  Br4 Pb2 Br5 . . . 98.9(4) ?
  Br4 Pb2 Br5 7_455 . . 97.8(4) ?
  Pb1 Br1 Pb2 . . . 178.1(4) ?
  Pb1 Br1 N2 . . 6_455 92.9(5) ?
  Pb1 Br1 N2 . . 4_554 95.0(6) ?
  Pb2 Br1 N2 . . 6_455 85.1(5) ?
  Pb2 Br1 N2 . . 4_554 84.5(5) ?
  N2 Br1 N2 6_455 . 4_554 86.0(8) ?
  Pb1 Br2 Pb1 . . 7_555 157.8(2) ?
  Pb1 Br2 N2 . . 3_545 89.1(6) ?
  Pb1 Br2 H1c3 . . 5_545 82.34 ?
  Pb1 Br2 N2 7_555 . 3_545 92.7(5) ?
  Pb1 Br2 H1c3 7_555 . 5_545 76.15 ?
  N2 Br2 H1c3 3_545 . 5_545 80.35 ?
  Pb2 Br3 Pb2 . . 7_454 168.5(4) ?
  Pb2 Br3 N1 . . 6_455 92.1(7) ?
  Pb2 Br3 N1 . . 4_554 97.4(7) ?
  Pb2 Br3 N1 7_454 . 6_455 95.4(7) ?
  Pb2 Br3 N1 7_454 . 4_554 85.9(7) ?
  N1 Br3 N1 6_455 . 4_554 122.8(7) ?
  Pb2 Br4 Pb2 . . 7_555 175.8(4) ?
  Pb2 Br4 N1 . . 6_555 93.5(7) ?
  Pb2 Br4 N1 . . 4_555 88.6(8) ?
  Pb2 Br4 N1 7_555 . 6_555 82.3(7) ?
  Pb2 Br4 N1 7_555 . 4_555 92.9(8) ?
  N1 Br4 N1 6_555 . 4_555 105.0(9) ?
  Br3 N1 Br3 6_555 . 4_555 70.0(5) ?
  Br3 N1 Br4 6_555 . 6_455 114.0(7) ?
  Br3 N1 Br4 6_555 . 4_554 71.9(8) ?
  Br3 N1 C2 6_555 . . 110(2) ?
  Br3 N1 H1n1 6_555 . . 87.05 ?
  Br3 N1 H2n1 6_555 . . 24.39 ?
  Br3 N1 H3n1 6_555 . . 128.28 ?
  Br3 N1 Br4 4_555 . 6_455 73.3(8) ?
  Br3 N1 Br4 4_555 . 4_554 112.9(7) ?
  Br3 N1 C2 4_555 . . 91(2) ?
  Br3 N1 H1n1 4_555 . . 30.54 ?
  Br3 N1 H2n1 4_555 . . 94.37 ?
  Br3 N1 H3n1 4_555 . . 139.91 ?
  Br4 N1 Br4 6_455 . 4_554 74.8(6) ?
  Br4 N1 C2 6_455 . . 124(3) ?
  Br4 N1 H1n1 6_455 . . 42.85 ?
  Br4 N1 H2n1 6_455 . . 125.1 ?
  Br4 N1 H3n1 6_455 . . 66.63 ?
  Br4 N1 C2 4_554 . . 154(3) ?
  Br4 N1 H1n1 4_554 . . 96.43 ?
  Br4 N1 H2n1 4_554 . . 61.15 ?
  Br4 N1 H3n1 4_554 . . 58.09 ?
  C2 N1 H1n1 . . . 109.47 ?
  C2 N1 H2n1 . . . 109.47 ?
  C2 N1 H3n1 . . . 109.47 ?
  H1n1 N1 H2n1 . . . 109.47 ?
  H1n1 N1 H3n1 . . . 109.47 ?
  H2n1 N1 H3n1 . . . 109.47 ?
  N1 C2 C1 . . . 109(3) ?
  N1 C2 H1c2 . . . 109.47 ?
  N1 C2 H2c2 . . . 109.47 ?
  C1 C2 H1c2 . . . 109.47 ?
  C1 C2 H2c2 . . . 109.47 ?
  H1c2 C2 H2c2 . . . 109.47 ?
  C2 C1 H1c1 . . . 109.47 ?
  C2 C1 H2c1 . . . 109.47 ?
  C2 C1 H3c1 . . . 109.47 ?
  H1c1 C1 H2c1 . . . 109.47 ?
  H1c1 C1 H3c1 . . . 109.47 ?
  H2c1 C1 H3c1 . . . 109.47 ?
  Br1 N2 Br1 6_555 . 4_555 104.7(9) ?
  Br1 N2 Br2 6_555 . 3_555 69.5(5) ?
  Br1 N2 C4 6_555 . . 148(2) ?
  Br1 N2 H1n2 6_555 . . 102.2 ?
  Br1 N2 H2n2 6_555 . . 52.29 ?
  Br1 N2 H3n2 6_555 . . 63.53 ?
  Br1 N2 Br2 4_555 . 3_555 70.9(7) ?
  Br1 N2 C4 4_555 . . 73(3) ?
  Br1 N2 H1n2 4_555 . . 104.3 ?
  Br1 N2 H2n2 4_555 . . 142.25 ?
  Br1 N2 H3n2 4_555 . . 41.24 ?
  Br2 N2 C4 3_555 . . 79.9(19) ?
  Br2 N2 H1n2 3_555 . . 168.24 ?
  Br2 N2 H2n2 3_555 . . 72.62 ?
  Br2 N2 H3n2 3_555 . . 59.68 ?
  C4 N2 H1n2 . . . 109.47 ?
  C4 N2 H2n2 . . . 109.47 ?
  C4 N2 H3n2 . . . 109.47 ?
  H1n2 N2 H2n2 . . . 109.47 ?
  H1n2 N2 H3n2 . . . 109.47 ?
  H2n2 N2 H3n2 . . . 109.47 ?
  N2 C4 C3 . . . 109(3) ?
  N2 C4 H1c4 . . . 109.47 ?
  N2 C4 H2c4 . . . 109.47 ?
  C3 C4 H1c4 . . . 109.47 ?
  C3 C4 H2c4 . . . 109.47 ?
  H1c4 C4 H2c4 . . . 109.47 ?
  C4 C3 H1c3 . . . 109.47 ?
  C4 C3 H2c3 . . . 109.47 ?
  C4 C3 H3c3 . . . 109.47 ?
  H1c3 C3 H2c3 . . . 109.47 ?
  H1c3 C3 H3c3 . . . 109.47 ?
  H2c3 C3 H3c3 . . . 109.47 ?
  Br2 H1c3 C3 5_455 . . 159.5 ?

loop_
 _geom_torsion_atom_site_label_1
 _geom_torsion_atom_site_label_2
 _geom_torsion_atom_site_label_3
 _geom_torsion_atom_site_label_4
 _geom_torsion_site_symmetry_1
 _geom_torsion_site_symmetry_2
 _geom_torsion_site_symmetry_3
 _geom_torsion_site_symmetry_4
 _geom_torsion
 _geom_torsion_publ_flag
 ? ? ? ? ? ? ? ? ? ?

loop_
 _geom_hbond_atom_site_label_D
 _geom_hbond_atom_site_label_H
 _geom_hbond_atom_site_label_A
 _geom_hbond_site_symmetry_D
 _geom_hbond_site_symmetry_H
 _geom_hbond_site_symmetry_A
 _geom_hbond_distance_DH
 _geom_hbond_distance_HA
 _geom_hbond_distance_DA
 _geom_hbond_angle_DHA
 _geom_hbond_publ_flag
 ? ? ? ? ? ? ? ? ? ? ?


#=======================================================================

# 11. STRUCTURE-FACTOR LIST

loop_
 _refln_index_h
 _refln_index_k
 _refln_index_l
 _refln_F_squared_calc
 _refln_F_squared_meas
 _refln_F_squared_sigma
 _refln_observed_status
   2   0   0  507612.  566890.    2360. o
  -2   0   0  511696.  613201.   12160. o
   4   0   0 1494530. 1469120.    7141. o
  -4   0   0 1472770. 1508300.    2969. o
   6   0   0   80244.   94999.    1186. o
  -6   0   0   83561.   96425.    1446. o
   8   0   0   89216.  134542.     790. o
  -8   0   0   87293.  138402.    1303. o
  10   0   0    7570.   14458.    1326. o
 -10   0   0    7396.   11802.    1755. o
  -8   2   0   23146.   40382.    1371. o
   8  -2   0   22211.   36942.    1275. o
  -6   2   0  317502.  425860.    7555. o
   6  -2   0  324193.  411066.    7546. o
  -4   2   0  183847.  186251.    1896. o
   4  -2   0  181608.  181916.    1866. o
   2  -2   0 2845550. 2796560.   11782. o
   0   2   0  503266.  586606.    3313. o
   0  -2   0  506845.  575616.    3027. o
   2   2   0 2859680. 2616320.   22152. o
  -2  -2   0 2829410. 2619260.   23084. o
   4   2   0  177007.  178085.    2271. o
  -4  -2   0  188448.  179623.    3266. o
   6   2   0  324444.  400998.    7558. o
  -6  -2   0  317250.  403180.    7963. o
   8   2   0   22626.   33335.    1100. o
  -8  -2   0   22732.   30678.    1499. o
  -8   4   0   50762.   98327.     600. o
   8  -4   0   51660.   93517.    1065. o
  -6   4   0   36447.   56686.    1288. o
   6  -4   0   35506.   53470.     962. o
  -4   4   0  517816.  645054.   11619. o
   4  -4   0  518364.  667482.   11839. o
  -2   4   0  175732.  181580.    1899. o
   2  -4   0  176473.  177274.    2136. o
   0   4   0 1465630.  943559.   18040. o
   2   4   0  170479.  191089.    4242. o
  -2  -4   0  181727.  168968.    2948. o
   4   4   0  522242.  644635.   12086. o
  -4  -4   0  513938.  699671.   13097. o
   6   4   0   34376.   52016.    1265. o
  -6  -4   0   37577.   55232.    3114. o
   8   4   0   51502.  103584.    1244. o
  -8  -4   0   50920.   88539.    3330. o
  -8   6   0    4018.    6908.    1058. o
   8  -6   0    3696.    9033.    1447. o
  -6   6   0   79999.  155684.    2874. o
   6  -6   0   80036.  135689.     596. o
  -4   6   0   34083.   53946.     902. o
   4  -6   0   34609.   50450.    1378. o
  -2   6   0  318121.  367132.    6962. o
   0   6   0   74490.   87644.    1035. o
   2   6   0  318408.  362518.    4378. o
  -2  -6   0  312034.  389924.    7598. o
   4   6   0   32793.   49974.    2145. o
  -4  -6   0   35899.   48436.    1587. o
   6   6   0   80303.  116449.    1583. o
  -6  -6   0   79732.  129033.    2584. o
   8   6   0    3657.    9368.    1699. o
  -8  -6   0    4057.    5817.    2768. o
  -6   8   0    3583.    8669.    1392. o
  -4   8   0   50918.   90748.     395. o
  -2   8   0   20944.   31042.     990. o
   0   8   0   86472.  119049.     967. o
   2   8   0   21418.   32748.    1596. o
   4   8   0   50738.   82694.    2719. o
  -4  -8   0   50269.   68600.    1886. o
   6   8   0    3539.    4391.    1426. o
  -6  -8   0    3900.    5901.    1872. o
   0  10   0    7496.    8110.    1257. o
  -9   1   1   18040.   22764.     865. o
   9  -1   1   17155.   22596.     831. o
  -7   1   1   82711.  113876.      87. o
   7  -1   1   88616.   98411.     679. o
  -5   1   1  202012.  227724.    4534. o
   5  -1   1  192645.  216006.    4264. o
  -3   1   1  574546.  638790.   12230. o
   3  -1   1  586368.  649920.   12456. o
  -1   1   1  759642.  583949.    8569. o
   1  -1   1  759677.  591612.    8442. o
   1   1   1  759919.  563143.    9862. o
  -1  -1   1  759400.  582495.   10256. o
   3   1   1  577464.  656772.   12521. o
  -3  -1   1  583450.  652828.   12681. o
   5   1   1  202970.  222634.     675. o
  -5  -1   1  191687.  214272.     844. o
   7   1   1   84654.   97684.     776. o
  -7  -1   1   86674.  103501.    1038. o
   9   1   1   18175.   22680.     895. o
  -9  -1   1   17020.   24162.    1225. o
  -9   3   1   15547.   26875.     935. o
   9  -3   1   16672.   23184.     705. o
  -7   3   1   32873.   44717.     837. o
   7  -3   1   30874.   44913.     910. o
  -5   3   1  205910.  273671.    4804. o
   5  -3   1  211781.  265477.    4844. o
  -3   3   1  223508.  233289.    1119. o
   3  -3   1  224513.  228814.    1421. o
  -1   3   1  585966.  627827.   12339. o
   1  -3   1  573243.  597457.    3048. o
   1   3   1  575801.  627408.    2923. o
  -1  -3   1  583408.  633588.   12651. o
   3   3   1  231621.  218411.    2419. o
  -3  -3   1  216399.  251466.    2675. o
   5   3   1  206845.  246517.    4762. o
  -5  -3   1  210846.  256752.     923. o
   7   3   1   32610.   42284.     994. o
  -7  -3   1   31136.   39767.    1684. o
   9   3   1   15866.   21478.     774. o
  -9  -3   1   16353.   26511.    1554. o
  -7   5   1   35615.   60965.     648. o
   7  -5   1   36277.   60881.     616. o
  -5   5   1   31198.   40438.     655. o
   5  -5   1   31364.   41501.     672. o
  -3   5   1  212335.  251662.    4738. o
   3  -5   1  205880.  262848.    4800. o
  -1   5   1  190682.  206917.    4102. o
   1   5   1  202476.  203813.    2573. o
  -1  -5   1  189842.  191368.    1688. o
   3   5   1  206699.  261618.     620. o
  -3  -5   1  211516.  236085.    1673. o
   5   5   1   32544.   42759.     987. o
  -5  -5   1   30018.   39543.    1506. o
   7   5   1   35544.   50086.    1173. o
  -7  -5   1   36348.   58420.    2217. o
  -7   7   1    5230.    8362.     860. o
   7  -7   1    5214.    7215.     750. o
  -5   7   1   36645.   54225.     631. o
   5  -7   1   35870.   44465.     969. o
  -3   7   1   29838.   37502.     621. o
  -1   7   1   88459.   90525.     808. o
   1   7   1   83931.   91643.    1007. o
   3   7   1   31822.   36775.    1792. o
  -3  -7   1   30068.   29895.     952. o
   5   7   1   35808.   47765.    1474. o
  -5  -7   1   36708.   41892.    1300. o
   7   7   1    5103.    9340.    1251. o
  -7  -7   1    5340.    7886.    1395. o
  -3   9   1   16961.   15745.     596. o
  -1   9   1   16742.   18989.     740. o
   1   9   1   17909.   18989.     973. o
   3   9   1   16039.   19296.    1274. o
   2   0   2   13214.    6963.     994. o
  -2   0   2   19249.    7187.    1150. o
   4   0   2   43919.   32608.    1035. o
  -4   0   2   41935.   35320.    1203. o
   6   0   2   41717.   45920.     956. o
  -6   0   2   44738.   46423.     929. o
   8   0   2    1646.    2489.     838. o
  -8   0   2    1544.    1706.     755. o
  10   0   2    5374.    2741.     786. o
 -10   0   2    5634.    1986.    1149. <
  -8   2   2   16981.   15381.     764. o
   8  -2   2   16124.   16332.     866. o
  -6   2   2   11985.   11102.     675. o
   6  -2   2   12912.   10347.     793. o
  -4   2   2   48410.   41920.     900. o
   4  -2   2   46323.   41501.     955. o
  -2   2   2   66238.   77604.    1066. o
   2  -2   2   66482.   76206.    1098. o
   0   2   2   12094.    6460.    1047. o
   0  -2   2   17382.    6880.    1806. o
   2   2   2   68205.   66418.    1891. o
  -2  -2   2   64514.   70333.    2843. o
   4   2   2   44307.   41333.    1094. o
  -4  -2   2   50427.   39348.    1304. o
   6   2   2   12617.    7970.     963. o
  -6  -2   2   12280.    5733.    1186. o
   8   2   2   16127.   13479.     851. o
  -8  -2   2   16978.   12081.    1217. o
  -8   4   2    1735.    3999.     977. o
   8  -4   2    1962.    3132.     838. o
  -6   4   2   21512.   19520.     934. o
   6  -4   2   20824.   19156.     684. o
  -4   4   2   21587.   25057.     812. o
   4  -4   2   21614.   26400.     652. o
  -2   4   2   45879.   40578.     959. o
   2  -4   2   47173.   41221.    1099. o
   0   4   2   44715.   29532.     922. o
   2   4   2   43577.   44689.    2231. o
  -2  -4   2   49476.   40858.    1495. o
   4   4   2   21806.   14486.    1093. o
  -4  -4   2   21394.   13899.    1367. o
   6   4   2   20406.   17674.     910. o
  -6  -4   2   21930.   16108.    2000. o
   8   4   2    1841.     615.    1007. <
  -8  -4   2    1857.     280.    1818. <
  -8   6   2    2627.     -28.     840. <
   8  -6   2    2554.     951.     700. <
  -6   6   2    4305.    8669.     829. o
   6  -6   2    4296.    8725.     829. o
  -4   6   2   20683.   17618.     666. o
   4  -6   2   21175.   16668.     974. o
  -2   6   2   13578.    8725.     583. o
   0   6   2   41295.   42088.     800. o
   2   6   2   13241.    8921.    2047. o
  -2  -6   2   13024.    6264.    1077. o
   4   6   2   20206.   17814.    1435. o
  -4  -6   2   21653.   14738.    1119. o
   6   6   2    4239.    1286.    1120. <
  -6  -6   2    4362.    2545.    1288. <
   8   6   2    2594.    1622.    1147. <
  -8  -6   2    2587.    1622.    1343. <
  -6   8   2    2533.    -112.     868. <
   6  -8   2    2607.     839.    1035. <
  -4   8   2    1995.    1958.     587. o
  -2   8   2   15968.   12808.     716. o
   0   8   2    1792.     979.     672. <
   2   8   2   15971.   11354.    1243. o
   4   8   2    1856.    2069.    1370. <
  -4  -8   2    1902.    1147.     951. <
   6   8   2    2578.    1790.    1147. <
  -6  -8   2    2562.     475.    1119. <
   0  10   2    5291.    2825.     758. o
  -9   1   3    1055.    8613.    1051. o
   9  -1   3    1097.    8865.     738. o
  -7   1   3    4157.    8474.     687. o
   7  -1   3    4141.    8222.     717. o
  -5   1   3   12704.   20862.     850. o
   5  -1   3   15779.   19632.     701. o
  -3   1   3   11575.   21142.     931. o
   3  -1   3   12183.   21002.     697. o
  -1   1   3   65813.   64293.    1472. o
   1  -1   3   66036.   64069.    1532. o
   1   1   3   67615.   64573.    2344. o
  -1  -1   3   64235.   65943.    2842. o
   3   1   3   12782.   17786.     957. o
  -3  -1   3   10975.   16891.    1126. o
   5   1   3   14843.   17926.     908. o
  -5  -1   3   13640.   17199.    1020. o
   7   1   3    3942.    9173.     627. o
  -7  -1   3    4356.    8641.     801. o
   9   1   3    1163.    5425.     777. o
  -9  -1   3     988.    6292.    1169. o
  -9   3   3    5196.    8557.     746. o
   9  -3   3    5165.    8250.     945. o
  -7   3   3    4430.   12612.     697. o
   7  -3   3    5204.   12277.     902. o
  -5   3   3   13924.   13983.     867. o
   5  -3   3   13546.   14990.     776. o
  -3   3   3   36819.   46786.     688. o
   3  -3   3   36908.   45192.     719. o
  -1   3   3   11123.   18122.     596. o
   1  -3   3   10749.   18765.    1087. o
   1   3   3   11807.   17842.    1719. o
  -1  -3   3   10065.   18010.    1032. o
   3   3   3   37533.   44885.    1337. o
  -3  -3   3   36194.   47374.    2063. o
   5   3   3   12098.    7383.     852. o
  -5  -3   3   15373.    7327.    1552. o
   7   3   3    5288.   10403.     853. o
  -7  -3   3    4346.   11270.    1160. o
   9   3   3    4959.    7271.     693. o
  -9  -3   3    5402.    7970.    1563. o
  -7   5   3   14751.   15046.     725. o
   7  -5   3   14642.   14598.     979. o
  -5   5   3   10259.   17478.     626. o
   5  -5   3   10338.   15968.     639. o
  -3   5   3   13488.   15884.     912. o
   3  -5   3   13436.   13088.     840. o
  -1   5   3   14970.   17786.     594. o
   1   5   3   13902.   15633.    1618. o
  -1  -5   3   13095.   14206.    1199. o
   3   5   3   11834.    7495.    1350. o
  -3  -5   3   15090.    6740.    1055. o
   5   5   3   10897.   16164.    1100. o
  -5  -5   3    9701.   16444.    1550. o
   7   5   3   13866.   12193.     818. o
  -7  -5   3   15527.   11662.    1964. o
  -7   7   3    1009.    2685.     838. o
   7  -7   3    1034.    4083.    1004. o
  -5   7   3   14506.   14654.     838. o
   5  -7   3   14395.   14123.    1427. o
  -3   7   3    5161.   10627.     594. o
  -1   7   3    3748.    6180.     638. o
   1   7   3    3520.    8949.     912. o
   3   7   3    5256.   11522.    1725. o
  -3  -7   3    4408.    8250.     915. o
   5   7   3   13620.   10347.    1183. o
  -5  -7   3   15281.    9005.     998. o
   7   7   3    1212.    1566.    1063. <
  -7  -7   3     830.    1762.    1342. <
  -3   9   3    4903.    6432.     668. o
  -1   9   3    1063.    6712.     689. o
   1   9   3    1139.    5817.     748. o
   3   9   3    4668.    7243.    1115. o
   2   0   4    2118.    1398.     811. <
  -2   0   4    1250.    1342.     867. <
   4   0   4  219079.  254766.    4944. o
  -4   0   4  220068.  266037.    5120. o
   6   0   4    7358.    4810.     732. o
  -6   0   4    9756.    3775.     685. o
   8   0   4   50144.   81380.    1611. o
  -8   0   4   47846.   84959.     383. o
  10   0   4    3383.    1594.     673. o
 -10   0   4    4151.    2797.    1148. o
  -8   2   4    7128.    4335.     927. o
   8  -2   4    5991.    4419.     730. o
  -6   2   4  103410.  162116.    2776. o
   6  -2   4  105060.  156803.    2751. o
  -4   2   4    3840.    1846.     590. o
   4  -2   4    3182.    1930.     672. o
  -2   2   4  227667.  253033.    5050. o
   2  -2   4  227281.  256892.    5100. o
   0   2   4    1890.    2014.    1174. <
   0  -2   4    1130.    1594.    1258. <
   2   2   4  224545.  247216.    2183. o
  -2  -2   4  230403.  251131.    3180. o
   4   2   4    2799.    1650.     924. <
  -4  -2   4    4223.    1175.    1204. <
   6   2   4  105518.  159432.    2895. o
  -6  -2   4  102953.  153167.    2989. o
   8   2   4    5584.    3076.     759. o
  -8  -2   4    7535.    1706.    1152. <
  -8   4   4   19128.   47430.     575. o
   8  -4   4   19781.   43878.     539. o
  -6   4   4    5358.    1902.     842. o
   6  -4   4    4835.    1902.     619. o
  -4   4   4  115990.  188544.    3145. o
   4  -4   4  116075.  169695.    2996. o
  -2   4   4    2949.    1063.     700. <
   2  -4   4    3424.    1286.    1148. <
   0   4   4  210037.  244167.    4776. o
   0  -4   4  210905.  226353.    2321. o
   2   4   4    2512.    2069.    1706. <
  -2  -4   4    3862.    1426.     952. <
   4   4   4  116676.  168660.    3207. o
  -4  -4   4  115390.  173862.    1115. o
   6   4   4    4009.     643.     952. <
  -6  -4   4    6184.     419.    1624. <
   8   4   4   20158.   40718.     766. o
  -8  -4   4   18752.   50422.    2111. o
  -8   6   4    2037.    1119.     839. <
   8  -6   4    1926.    1091.     867. <
  -6   6   4   21898.   55763.     220. o
   6  -6   4   21985.   55372.     532. o
  -4   6   4    4815.    1398.     702. <
   4  -6   4    5054.    1063.     619. <
  -2   6   4  100896.  151462.    2572. o
   0   6   4    6618.    3775.     621. o
   2   6   4  101419.  140527.    2203. o
  -2  -6   4   99048.  140163.     370. o
   4   6   4    3872.     475.    1148. <
  -4  -6   4    5998.     559.     982. <
   6   6   4   22606.   49611.     999. o
  -6  -6   4   21277.   50506.    1216. o
   8   6   4    1687.    2014.     979. o
  -8  -6   4    2276.    1063.    1650. <
  -6   8   4    1958.    1454.     588. o
   6  -8   4    1992.   -1258.    1091. <
  -4   8   4   18947.   38425.     444. o
  -2   8   4    5599.    2629.     564. o
   0   8   4   47982.   68711.     470. o
   2   8   4    5134.    1594.    1428. <
   4   8   4   19378.   42284.    1846. o
  -4  -8   4   18044.   30427.    1128. o
   6   8   4    1685.    1930.    1314. <
  -6  -8   4    2265.    1091.    1091. <
   0  10   4    3058.    1678.     756. o
  -9   1   5    1468.    6124.    1057. o
   9  -1   5    1486.    5174.     637. o
  -7   1   5    8505.    9005.     810. o
   7  -1   5    8470.    6852.     593. o
  -5   1   5   16386.   16024.     841. o
   5  -1   5   16112.   13619.     850. o
  -3   1   5   14261.   11130.     934. o
   3  -1   5   14857.    9201.     831. o
  -1   1   5   19187.    6069.     962. o
   1  -1   5   19404.    6488.    1070. o
   1   1   5   20932.    5873.    1539. o
  -1  -1   5   17659.    6096.    2362. o
   3   1   5   14158.    4530.     917. o
  -3  -1   5   14960.    4866.    1029. o
   5   1   5   16814.   11913.     942. o
  -5  -1   5   15684.   13172.    1155. o
   7   1   5    8455.    9005.     753. o
  -7  -1   5    8519.    9536.    1088. o
   9   1   5    1504.    3328.     613. o
  -9  -1   5    1449.    6208.    1141. o
  -9   3   5    2750.    2629.     839. o
   9  -3   5    2854.    3580.     782. o
  -7   3   5    4037.    9145.     656. o
   7  -3   5    3953.    7495.     747. o
  -5   3   5    8896.   11997.     629. o
   5  -3   5    8718.   11829.     772. o
  -3   3   5   17270.   14710.     742. o
   3  -3   5   17434.   12752.     778. o
  -1   3   5   13801.    9788.     771. o
   1  -3   5   13093.    9928.    1349. o
   1   3   5   13003.    4195.    1799. o
  -1  -3   5   13891.    4978.    1080. o
   3   3   5   18593.   12165.    1195. o
  -3  -3   5   16110.   12501.    1324. o
   5   3   5    8494.    4027.     958. o
  -5  -3   5    9120.    2964.    1376. o
   7   3   5    4328.    7886.     916. o
  -7  -3   5    3662.    6096.    1368. o
   9   3   5    2820.    4335.     977. o
  -9  -3   5    2784.    2741.    1203. o
  -7   5   5    3718.    9173.     826. o
   7  -5   5    3775.    7271.     691. o
  -5   5   5    8839.    9732.     640. o
   5  -5   5    8941.    9592.     753. o
  -3   5   5    7860.   12249.     881. o
   3  -5   5    7956.   13312.    1302. o
  -1   5   5   16013.   13731.     629. o
   1   5   5   16816.   10459.    1138. o
  -1  -5   5   15638.   10459.    1161. o
   3   5   5    7604.    3440.    1514. o
  -3  -5   5    8212.    2992.     847. o
   5   5   5    9659.    8502.    1093. o
  -5  -5   5    8122.    7774.    1567. o
   7   5   5    3679.    3244.    1063. o
  -7  -5   5    3814.    5258.    1929. o
  -7   7   5    1065.     979.     811. <
   7  -7   5    1076.     -56.     727. <
  -5   7   5    3513.    6292.     665. o
   5  -7   5    3437.    7383.    1000. o
  -3   7   5    4300.    8446.     574. o
  -1   7   5    7686.    6600.     619. o
   1   7   5    7670.    8865.     864. o
   3   7   5    4729.    7271.    1899. o
  -3  -7   5    4045.    7103.    1030. o
   5   7   5    3403.    3524.    1342. o
  -5  -7   5    3547.    4027.    1286. o
   7   7   5    1149.     112.    1147. <
  -7  -7   5     992.    1370.    1286. <
  -3   9   5    2540.    2209.     588. o
  -1   9   5    1354.    4055.     724. o
   1   9   5    1375.    2964.     838. o
   3   9   5    2500.    4530.    1369. o
   2   0   6    6858.    1286.     789. <
  -2   0   6   13905.    1818.     753. o
   4   0   6  253747.  262569.    1408. o
  -4   0   6  245200.  268218.     984. o
   6   0   6   14019.   20471.     742. o
  -6   0   6   15500.   19492.     873. o
   8   0   6   12950.   16584.     821. o
  -8   0   6   12006.   17926.    1096. o
  10   0   6    3333.    3691.     811. o
 -10   0   6    3132.    3496.    1118. o
  -8   2   6    5980.   11690.     735. o
   8  -2   6    5868.    9648.     857. o
  -6   2   6   50598.   64265.     723. o
   6  -2   6   53329.   63174.     836. o
  -4   2   6   12115.   15828.     764. o
   4  -2   6    9779.   15325.     699. o
  -2   2   6  464939.  468675.    2264. o
   2  -2   6  465692.  461963.    2642. o
   0   2   6    6366.    1622.    1066. <
   0  -2   6   12542.    1846.    1298. <
   2   2   6  471026.  440766.    4549. o
  -2  -2   6  459606.  458048.    4960. o
   4   2   6    8099.   12976.     992. o
  -4  -2   6   13796.   13256.     981. o
   6   2   6   53143.   59902.    1082. o
  -6  -2   6   50783.   57721.    1264. o
   8   2   6    5994.    7635.     695. o
  -8  -2   6    5855.    9620.    1139. o
  -8   4   6    9629.   17003.     746. o
   8  -4   6   10179.   17674.     947. o
  -6   4   6    5000.    9285.     771. o
   6  -4   6    4552.    7774.     747. o
  -4   4   6   91277.  113093.     289. o
   4  -4   6   91504.  114491.     264. o
  -2   4   6    9193.   14682.     643. o
   2  -4   6   10795.   10487.     980. o
   0   4   6  252734.  247188.    1935. o
   0  -4   6  245241.  262988.    2554. o
   2   4   6    7275.   13368.    1920. o
  -2  -4   6   12714.   13116.    1033. o
   4   4   6   93108.   97796.    1399. o
  -4  -4   6   89672.   98635.    1897. o
   6   4   6    4249.    7998.     972. o
  -6  -4   6    5304.    5453.    1818. o
   8   4   6    9726.   17171.    1006. o
  -8  -4   6   10082.   15661.    1919. o
  -8   6   6     914.     979.     867. <
   8  -6   6     811.    2377.     838. o
  -6   6   6   15043.   28273.     858. o
   6  -6   6   15023.   22988.     756. o
  -4   6   6    4481.    9005.     629. o
   4  -6   6    4793.   11158.    1303. o
  -2   6   6   52791.   54449.     810. o
   0   6   6   12923.   21562.     696. o
   2   6   6   52579.   56462.    2127. o
  -2  -6   6   50559.   50226.    1932. o
   4   6   6    4134.    9229.    1138. o
  -4  -6   6    5140.    5873.    1034. o
   6   6   6   14878.   23491.    1075. o
  -6  -6   6   15189.   22400.    1484. o
   8   6   6     859.    1510.    1118. <
  -8  -6   6     866.     419.    1622. <
  -6   8   6     804.    1454.     727. <
   6  -8   6     907.    2153.    1566. <
  -4   8   6   10419.   15157.     674. o
  -2   8   6    5744.    7523.     582. o
   0   8   6   12994.   13563.     640. o
   2   8   6    5887.    8138.    1395. o
  -2  -8   6    5732.    4670.    1092. o
   4   8   6    9901.   13703.    1446. o
  -4  -8   6   10333.   11326.    1060. o
   6   8   6     859.     839.    1119. <
  -6  -8   6     852.     -84.    1286. <
   0  10   6    3408.    3719.     895. o
  -9   1   7   19756.   33111.     962. o
   9  -1   7   17033.   29448.     764. o
  -7   1   7   69347.  114435.    2174. o
   7  -1   7   71992.  108982.    2024. o
  -5   1   7  117569.  135857.     680. o
   5  -1   7  105615.  128809.    2540. o
  -3   1   7  279228.  311369.    6148. o
   3  -1   7  284009.  308992.    6175. o
  -1   1   7  296560.  361427.    6833. o
   1  -1   7  298087.  326554.    3542. o
   1   1   7  308890.  352198.    5038. o
  -1  -1   7  285758.  336314.    4662. o
   3   1   7  267458.  279096.    1781. o
  -3  -1   7  295779.  306531.    2371. o
   5   1   7  115433.  130320.     856. o
  -5  -1   7  107751.  134570.    1009. o
   7   1   7   66935.  108451.    2031. o
  -7  -1   7   74405.  109793.     515. o
   9   1   7   19093.   32132.     906. o
  -9  -1   7   17697.   28888.     990. o
  -9   3   7   16312.   33279.     938. o
   9  -3   7   17026.   31769.     668. o
  -7   3   7   32730.   46758.     768. o
   7  -3   7   27837.   43487.     582. o
  -5   3   7  157042.  251187.    4060. o
   5  -3   7  157568.  244923.    4049. o
  -3   3   7  103678.  113848.     883. o
   3  -3   7  104527.  110184.    1026. o
  -1   3   7  293245.  276943.    2275. o
   1  -3   7  284665.  297805.    2753. o
   1   3   7  274349.  293862.    3419. o
  -1  -3   7  303562.  287318.    4304. o
   3   3   7  110537.  110380.    1820. o
  -3  -3   7   97668.  113093.    2121. o
   5   3   7  153603.  226353.    3995. o
  -5  -3   7  161007.  225738.     100. o
   7   3   7   31938.   43962.     838. o
  -7  -3   7   28629.   42759.    1766. o
   9   3   7   16250.   26176.     855. o
  -9  -3   7   17088.   32552.    1957. o
  -7   5   7   36211.   74528.    1487. o
   7  -5   7   37020.   66558.     598. o
  -5   5   7   27584.   42284.     713. o
   5  -5   7   27803.   39823.     756. o
  -3   5   7  162381.  234156.    3933. o
   3  -5   7  160869.  234184.    4373. o
  -1   5   7  111567.  123860.     416. o
   1   5   7  122779.  123748.    1715. o
  -1  -5   7  113440.  122517.    2163. o
   3   5   7  157854.  224675.     546. o
  -3  -5   7  165396.  204456.    1069. o
   5   5   7   29355.   40466.    1108. o
  -5  -5   7   26032.   38984.    1517. o
   7   5   7   36783.   66530.    1028. o
  -7  -5   7   36448.   63594.    1838. o
  -7   7   7    6461.    7830.     892. o
   7  -7   7    6507.    4754.     926. o
  -5   7   7   37986.   58252.     318. o
   5  -7   7   37214.   71312.    1419. o
  -3   7   7   29015.   41976.     630. o
  -1   7   7   77202.   95475.    1878. o
   1   7   7   71423.  101767.     845. o
   3   7   7   33701.   41920.    2056. o
  -3  -7   7   29710.   33055.    1434. o
   5   7   7   37715.   55987.    1557. o
  -5  -7   7   37485.   52575.    1469. o
   7   7   7    6834.    9872.    1140. o
  -7  -7   7    6134.   10739.    1587. o
  -3   9   7   18230.   23743.     681. o
  -1   9   7   18004.   25225.     785. o
   1   9   7   20360.   26651.     936. o
   3   9   7   17342.   28161.    1376. o
  -3  -9   7   18284.   19604.    1337. o
   0   0   8  561542.  419847.   10441. o
   2   0   8   55924.   47905.    1315. o
  -2   0   8   77902.   48996.    1577. o
   4   0   8  356860.  432683.    7979. o
  -4   0   8  347579.  436627.    7928. o
   6   0   8   42399.   60741.     516. o
  -6   0   8   49732.   66894.    1046. o
   8   0   8   40990.   74920.    1491. o
  -8   0   8   40709.   75227.     454. o
  10   0   8    6851.   10403.     687. o
 -10   0   8    7057.   11270.    1221. o
  -8   2   8   18686.   32328.     741. o
   8  -2   8   16983.   32888.     719. o
  -6   2   8  122498.  188684.    3224. o
   6  -2   8  124206.  173079.    3068. o
  -4   2   8   31131.   26987.     956. o
   4  -2   8   20890.   24973.     808. o
  -2   2   8  497170.  509393.    1744. o
   2  -2   8  498490.  506401.    2052. o
   0   2   8   53737.   47486.    1618. o
   0  -2   8   72996.   49024.    2187. o
   2   2   8  507831.  515462.    3879. o
  -2  -2   8  487829.  528577.    4447. o
   4   2   8   18753.   22876.     897. o
  -4  -2   8   33268.   23547.    1312. o
   6   2   8  125546.  176798.    3215. o
  -6  -2   8  121158.  177470.    3531. o
   8   2   8   17361.   28749.     959. o
  -8  -2   8   18308.   27658.    1063. o
  -8   4   8   27307.   54197.     893. o
   8  -4   8   27858.   52044.     709. o
  -6   4   8   18066.   30231.     763. o
   6  -4   8   16034.   29560.     851. o
  -4   4   8  190068.  240588.    4405. o
   4  -4   8  190759.  232646.    4384. o
  -2   4   8   20598.   25588.     561. o
   2  -4   8   29007.   23184.    1126. o
   0   4   8  374765.  408102.    8028. o
   0  -4   8  366630.  432600.    8617. o
   2   4   8   18158.   22680.    1634. o
  -2  -4   8   31447.   21785.    1228. o
   4   4   8  195652.  217936.    1200. o
  -4  -4   8  185175.  215671.    1810. o
   6   4   8   16464.   27658.    1023. o
  -6  -4   8   17636.   28777.    1776. o
   8   4   8   27656.   49555.     941. o
  -8  -4   8   27510.   54337.    2087. o
  -8   6   8    3260.    4978.     893. o
   8  -6   8    3050.    6572.    1030. o
  -6   6   8   40610.   66418.     329. o
   6  -6   8   40709.   59735.     767. o
  -4   6   8   16746.   29252.     635. o
   4  -6   8   18642.   26204.    1364. o
  -2   6   8  130302.  169052.    3075. o
   0   6   8   43794.   57805.     554. o
   2   6   8  131833.  166088.    1301. o
  -2  -6   8  127629.  131187.    2267. o
   4   6   8   17238.   25728.    1447. o
  -4  -6   8   18150.   24302.    1315. o
   6   6   8   41409.   59986.    1126. o
  -6  -6   8   39910.   54896.    1645. o
   8   6   8    3257.    4866.    1033. o
  -8  -6   8    3053.    5985.    1648. o
  -6   8   8    3129.    4335.     781. o
   6  -8   8    3368.    4782.    1593. o
  -4   8   8   28949.   42424.     657. o
  -2   8   8   18048.   26539.     586. o
   0   8   8   43648.   63817.     487. o
   2   8   8   18480.   29923.    1427. o
  -2  -8   8   19211.   21366.    1727. o
   4   8   8   28717.   41305.    1660. o
  -4  -8   8   28643.   30762.    2033. o
   6   8   8    3366.    4139.    1146. o
  -6  -8   8    3132.    3188.    1342. o
   0  10   8    7377.    8697.     835. o
  -9   1   9    3192.    5817.    1059. o
   9  -1   9    2766.    5733.     778. o
  -7   1   9   13389.   14067.     864. o
   7  -1   9   14826.   12808.     875. o
  -5   1   9   14141.   11130.     795. o
   5  -1   9   12209.    9452.     738. o
  -3   1   9   46208.   54309.    1075. o
   3  -1   9   50023.   51708.    1069. o
  -1   1   9   40990.   35041.    1143. o
   1  -1   9   41601.   38117.    2087. o
   1   1   9   45921.   36970.    3162. o
  -1  -1   9   36670.   35209.    2467. o
   3   1   9   44481.   42983.    1106. o
  -3  -1   9   51751.   47486.    1383. o
   5   1   9   14612.    9592.     857. o
  -5  -1   9   11738.    9732.    1124. o
   7   1   9   13378.   14962.     775. o
  -7  -1   9   14836.   15409.    1145. o
   9   1   9    3128.    2936.     895. o
  -9  -1   9    2830.    2741.     811. o
  -9   3   9    3992.    2685.    1036. o
   9  -3   9    4404.    3300.     784. o
  -7   3   9    2864.    4279.     809. o
   7  -3   9    2002.    4279.     752. o
  -5   3   9   37355.   52967.     553. o
   5  -3   9   38427.   52408.     879. o
  -3   3   9    7305.    6152.     813. o
   3  -3   9    7506.    5677.     704. o
  -1   3   9   51623.   52212.     942. o
   1  -3   9   46809.   50925.    1674. o
   1   3   9   45295.   46143.    1503. o
  -1  -3   9   53137.   44969.    2448. o
   3   3   9    8930.    4474.     958. o
  -3  -3   9    5881.    6096.    1678. o
   5   3   9   36667.   37418.    1084. o
  -5  -3   9   39116.   41920.    1716. o
   7   3   9    2551.    2489.     839. o
  -7  -3   9    2315.    3300.    1677. <
   9   3   9    4187.    2629.     980. o
  -9  -3   9    4209.    2908.    1651. <
  -7   5   9   10098.   14738.     876. o
   7  -5   9   10584.   13284.     743. o
  -5   5   9     641.    3300.     725. o
   5  -5   9     614.    2908.     725. o
  -3   5   9   39283.   50869.     679. o
   3  -5   9   37876.   48716.    1391. o
  -1   5   9   12645.   10739.     707. o
   1   5   9   15389.    8893.     916. o
  -1  -5   9   12231.    6432.    1241. o
   3   5   9   37273.   41557.    1537. o
  -3  -5   9   39887.   39487.    1318. o
   5   5   9     427.    3300.    1089. o
  -5  -5   9     828.    2461.    1286. <
   7   5   9   10417.    8809.     955. o
  -7  -5   9   10265.    7998.    1625. o
  -7   7   9     614.    1510.     839. <
   7  -7   9     597.     867.    1035. <
  -5   7   9   10713.   12529.     691. o
   5  -7   9   10242.   12668.    1505. o
  -3   7   9    2026.    4223.     527. o
  -1   7   9   15767.   12389.     716. o
   1   7   9   14112.   13004.    1150. o
  -1  -7   9   15776.   13899.    1487. o
   3   7   9    2653.    2825.     895. o
  -3  -7   9    2300.    2797.    1174. o
   5   7   9   10522.    9536.    1456. o
  -5  -7   9   10433.    5733.    1155. o
   7   7   9     479.    2797.    1229. o
  -7  -7   9     732.    3104.    1565. <
  -3   9   9    4627.    3636.     645. o
  -1   9   9    2902.    3887.     614. o
   1   9   9    3316.    2713.     951. o
   3   9   9    4379.    3412.    1203. o
  -3  -9   9    4456.    2825.    1176. o
   0   0  10   10259.    2545.    2996. <
   2   0  10   13266.    5985.    1050. o
  -2   0  10   14616.    5733.     918. o
   4   0  10   82442.   64069.    1370. o
  -4   0  10   80593.   67453.    1325. o
   6   0  10   10112.    4614.     740. o
  -6   0  10   12337.    4055.     994. o
   8   0  10   29705.   43794.     747. o
  -8   0  10   28361.   47765.    1009. o
  -8   2  10    5225.    4978.     979. o
   8  -2  10    4506.    3244.     785. o
  -6   2  10   53656.   78751.     556. o
   6  -2  10   55084.   76010.     493. o
  -4   2  10    6614.    2741.     705. o
   4  -2  10    5318.    3020.     675. o
  -2   2  10   54223.   45416.    1268. o
   2  -2  10   54205.   44102.    1726. o
   0   2  10   12062.    5453.     965. o
   0  -2  10   13245.    5789.    1271. o
   2   2  10   54078.   35125.    1695. o
  -2  -2  10   54350.   36355.    2273. o
   4   2  10    5276.    2685.     898. o
  -4  -2  10    6656.    1650.    1234. <
   6   2  10   55475.   72794.     909. o
  -6  -2  10   53264.   74668.    1463. o
   8   2  10    4443.    2014.     869. o
  -8  -2  10    5288.    1566.     926. <
  -8   4  10    8745.   19884.     899. o
   8  -4  10    9205.   22540.     820. o
  -6   4  10    2091.    2293.     783. o
   6  -4  10    1727.     979.     616. <
  -4   4  10   51614.   83785.    1638. o
   4  -4  10   51734.   78471.     568. o
  -2   4  10    4692.    2825.     646. o
   2  -4  10    5816.    3300.    1205. o
   0   4  10   77798.   66083.    1275. o
   0  -4  10   76176.   64321.    2198. o
   2   4  10    4644.    2573.    1539. <
  -2  -4  10    5865.    3356.    1177. o
   4   4  10   52586.   71480.    1307. o
  -4  -4  10   50762.   72515.    1691. o
   6   4  10    1598.     783.     979. <
  -6  -4  10    2221.    -168.    1678. <
   8   4  10    9450.   17842.    1059. o
  -8  -4  10    8500.   19967.    1790. o
  -6   6  10    9362.   24162.     837. o
   6  -6  10    9427.   24806.     954. o
  -4   6  10    1615.     951.     504. <
   4  -6  10    1900.    -475.     951. <
  -2   6  10   53343.   68264.     393. o
   2  -6  10   52195.   46339.    1478. o
   0   6  10    8875.    4279.     820. o
   2   6  10   53791.   67425.    1381. o
  -2  -6  10   51748.   55847.    1642. o
   4   6  10    1467.     727.    1342. <
  -4  -6  10    2048.    1314.     979. <
   6   6  10    9889.   20806.    1073. o
  -6  -6  10    8900.   20722.    1675. o
  -4   8  10    8813.   14234.     673. o
  -2   8  10    4068.    3132.     561. o
   0   8  10   28597.   35265.     704. o
   2   8  10    3996.    1958.    1260. <
  -2  -8  10    4755.    1622.    1623. <
   4   8  10    9093.   16192.    1124. o
  -4  -8  10    8195.   15577.    1436. o
  -9   1  11    5447.   15577.     799. o
   9  -1  11    5570.   15185.     684. o
  -7   1  11   19748.   37698.     843. o
   7  -1  11   19556.   34593.     717. o
  -5   1  11   53477.   79310.     637. o
   5  -1  11   53222.   73214.     551. o
  -3   1  11   45695.   56239.    1072. o
   3  -1  11   41980.   56155.     861. o
  -1   1  11   54800.   51904.    1537. o
   1  -1  11   54375.   52883.    1691. o
   1   1  11   51375.   52659.    2930. o
  -1  -1  11   57800.   48940.    2483. o
   3   1  11   42490.   49863.    1212. o
  -3  -1  11   45186.   49946.    1411. o
   5   1  11   53206.   71089.     833. o
  -5  -1  11   53493.   76346.    1130. o
   7   1  11   19531.   36607.     721. o
  -7  -1  11   19772.   35460.     840. o
   9   1  11    5716.   15856.     798. o
  -9  -1  11    5301.   16024.    1115. o
  -9   3  11    6986.   15605.     948. o
   9  -3  11    7134.   12780.     675. o
  -7   3  11   16755.   32748.     883. o
   7  -3  11   17111.   30930.     747. o
  -5   3  11   22408.   37726.     625. o
   5  -3  11   21175.   36719.     835. o
  -3   3  11   79350.   94076.     655. o
   3  -3  11   79387.   96341.     833. o
  -1   3  11   41008.   54980.    1067. o
   1   3  11   41589.   49835.    1615. o
  -1  -3  11   43817.   47709.    2159. o
   3   3  11   79648.   89350.    1630. o
  -3  -3  11   79088.   94188.    1888. o
   5   3  11   20640.   32076.    1039. o
  -5  -3  11   22943.   32804.    1775. o
   7   3  11   17720.   29056.    1018. o
  -7  -3  11   16146.   31461.    1815. o
   9   3  11    6913.   15856.     976. o
  -9  -3  11    7207.   14822.    1776. o
  -7   5  11   11089.   26455.     977. o
   7  -5  11   10935.   21925.     742. o
  -5   5  11   28334.   37110.     801. o
   5  -5  11   28541.   36104.     937. o
  -3   5  11   19992.   35125.     644. o
   3  -5  11   20930.   35992.    1366. o
  -1   5  11   53315.   70921.     542. o
   1  -5  11   53534.   68012.    1799. o
   1   5  11   53297.   72347.    1235. o
  -1  -5  11   53552.   58896.    1715. o
   3   5  11   19381.   32188.    1533. o
  -3  -5  11   21541.   32636.    1452. o
   5   5  11   30004.   33671.    1147. o
  -5  -5  11   26870.   34621.    1638. o
   7   5  11   10451.   19408.     967. o
  -7  -5  11   11572.   19604.    1600. o
  -7   7  11    3273.    2852.     867. o
   7  -7  11    3329.    4111.    1146. o
  -5   7  11   10530.   21813.     710. o
   5  -7  11   10537.   21058.    1161. o
  -3   7  11   17496.   26987.     639. o
   3  -7  11   17346.   18961.    1168. o
  -1   7  11   18310.   31098.     517. o
   1   7  11   18282.   35460.    1083. o
  -1  -7  11   18500.   30371.    1220. o
   3   7  11   18192.   27910.    1060. o
  -3  -7  11   16650.   25141.    1903. o
   5   7  11    9978.   19660.    1224. o
  -5  -7  11   11089.   17339.    1408. o
   7   7  11    3727.    3887.    1035. o
  -7  -7  11    2876.    4474.    1313. o
  -3   9  11    6594.   11214.     653. o
  -1   9  11    5362.   13703.     809. o
   1   9  11    5529.   13927.     982. o
   3   9  11    6342.   12501.    1160. o
  -3  -9  11    6658.    7746.    1313. o
   0   0  12   17059.   17954.    2935. o
   2   0  12   24592.   17646.     989. o
  -2   0  12   22076.   21366.    1178. o
   4   0  12   30324.   31769.     995. o
  -4   0  12   30945.   30790.    1036. o
   6   0  12    4657.    4614.     867. o
  -6   0  12    5493.    4027.     813. o
   8   0  12    9252.   18541.     910. o
  -8   0  12    8542.   15633.     779. o
  -8   2  12    4308.    1258.     758. <
   8  -2  12    3636.    4530.     754. o
  -6   2  12   17474.   30762.     784. o
   6  -2  12   18022.   29755.     639. o
  -4   2  12    1509.    1454.     727. <
   4  -2  12    1979.    1790.     643. o
  -2   2  12   29808.   31881.     818. o
   2  -2  12   29704.   33279.    1603. o
   0   2  12   23554.   19184.    1388. o
   0  -2  12   21349.   19045.    1185. o
   2   2  12   28965.   23938.    1560. o
  -2  -2  12   30546.   27462.    2387. o
   4   2  12    1874.     503.     979. <
  -4  -2  12    1615.    1203.    1091. <
   6   2  12   18062.   24917.     847. o
  -6  -2  12   17434.   26651.    1270. o
   8   2  12    3421.    1454.     673. o
  -8  -2  12    4523.    1734.    1316. <
  -8   4  12    3524.   11410.     730. o
   8  -4  12    3744.   11074.     961. o
  -6   4  12    3408.    1734.     617. o
   6  -4  12    3138.    1902.     784. o
  -4   4  12   19980.   39236.     681. o
   4  -4  12   19985.   34733.     753. o
  -2   4  12    1795.    1175.     532. o
   2  -4  12    1354.    1482.    1202. <
   0   4  12   27200.   31377.     915. o
   0  -4  12   27745.   29923.    1921. o
   2   4  12    1674.     811.     895. <
  -2  -4  12    1475.    1230.    1510. <
   4   4  12   20020.   27322.    1074. o
  -4  -4  12   19945.   29532.    1666. o
   6   4  12    2721.    1314.     979. <
  -6  -4  12    3825.    -559.    1427. <
   8   4  12    3881.   10040.    1050. o
  -8  -4  12    3387.   10180.    1557. o
  -6   6  12    3730.   15828.     822. o
   6  -6  12    3753.   14766.    1146. o
  -4   6  12    3211.    1790.     728. o
   4  -6  12    3337.     475.    1259. <
  -2   6  12   16349.   28301.     709. o
   2  -6  12   15878.   27182.    1520. o
   0   6  12    4451.    4586.     895. o
   2   6  12   16394.   25980.    1298. o
  -2  -6  12   15833.   22344.    1770. o
   4   6  12    2735.    1566.    1119. <
  -4  -6  12    3813.     196.    1008. <
   6   6  12    3920.   12529.    1241. o
  -6  -6  12    3563.   12277.    1580. o
  -4   8  12    3416.    9089.     712. o
  -2   8  12    3508.    2601.     533. o
   0   8  12    8551.   16052.     748. o
   2   8  12    3262.    2852.    1287. o
  -2  -8  12    4286.     168.    1623. <
   4   8  12    3573.   10375.    1049. o
  -4  -8  12    3103.    5621.    1816. o
  -9   1  13    5057.    5845.     950. o
   9  -1  13    4514.    5789.     809. o
  -7   1  13   23307.   29420.     814. o
   7  -1  13   23876.   27938.     920. o
  -5   1  13   37745.   40354.     806. o
   5  -1  13   32684.   39376.     817. o
  -3   1  13   68988.   92202.     870. o
   3  -1  13   70369.   88651.     998. o
  -1   1  13   30975.   26260.    1122. o
   1  -1  13   30906.   30482.    2211. o
   1   1  13   30420.   30399.    2042. o
  -1  -1  13   31460.   28413.    2137. o
   3   1  13   66318.   77213.    1299. o
  -3  -1  13   73040.   85351.    1542. o
   5   1  13   35769.   32468.     847. o
  -5  -1  13   34660.   41054.    1234. o
   7   1  13   22845.   26987.     921. o
  -7  -1  13   24338.   28329.    1150. o
   9   1  13    4799.    4307.     784. o
  -9  -1  13    4773.    6152.    1089. o
  -9   3  13    4872.    3803.    1064. o
   9  -3  13    5048.    4195.     840. o
  -7   3  13    8794.    7914.     813. o
   7  -3  13    7600.    9732.     805. o
  -5   3  13   58879.   76654.     803. o
   5  -3  13   59872.   73018.     805. o
  -3   3  13   19981.   23128.     817. o
   3  -3  13   20049.   25812.    1372. o
  -1   3  13   73272.   90021.    1131. o
   1   3  13   68646.   81911.    1932. o
  -1  -3  13   75613.   82554.    2885. o
   3   3  13   20527.   21701.    1253. o
  -3  -3  13   19503.   22484.    1499. o
   5   3  13   58004.   64992.    1252. o
  -5  -3  13   60747.   68572.    1886. o
   7   3  13    8261.    7355.     813. o
  -7  -3  13    8134.    8697.    1733. o
   9   3  13    4963.    4978.    1035. o
  -9  -3  13    4958.    4307.    1706. o
  -7   5  13   14341.   13843.     981. o
   7  -5  13   14449.   13563.     899. o
  -5   5  13    6723.    6096.     784. o
   5  -5  13    6754.    5062.     926. o
  -3   5  13   61607.   75172.     439. o
   3  -5  13   60241.   60070.    1344. o
  -1   5  13   34940.   37782.     717. o
   1   5  13   38464.   36859.    1382. o
  -1  -5  13   36673.   32104.    1620. o
   3   5  13   59474.   66306.    1694. o
  -3  -5  13   62374.   59539.    1568. o
   5   5  13    6975.    6124.    1148. o
  -5  -5  13    6502.    6236.    1399. o
   7   5  13   14469.   10599.    1102. o
  -7  -5  13   14321.   10263.    1602. o
  -5   7  13   14648.   13004.     708. o
   5  -7  13   14559.   10990.    1157. o
  -3   7  13    7825.    7411.     617. o
   3  -7  13    9048.    9313.    1370. o
  -1   7  13   25254.   24302.     763. o
   1   7  13   24076.   27155.    1156. o
  -1  -7  13   25659.   21953.    1332. o
   3   7  13    8580.    7551.    1093. o
  -3  -7  13    8293.    4223.    1235. o
   5   7  13   14671.    7886.    1384. o
  -5  -7  13   14536.    7439.    1108. o
  -3   9  13    5204.    4279.     701. o
  -1   9  13    4579.    4698.     699. o
   1   9  13    4905.    4195.     868. o
   3   9  13    5106.    3440.    1260. o
  -3  -9  13    5124.    -280.    1121. <
   0   0  14 1904250. 1603880.   20336. o
   2   0  14  110268.  145113.    2243. o
  -2   0  14  122709.  142401.    1333. o
   4   0  14  594181.  582635.    3221. o
  -4   0  14  588851.  578636.    3222. o
   6   0  14   57388.   93209.     176. o
  -6   0  14   62666.   97908.     644. o
   8   0  14   45675.   69103.     552. o
  -8   0  14   45495.   72571.     772. o
  -8   2  14   19925.   32104.     787. o
   8  -2  14   18630.   30678.     825. o
  -6   2  14  157562.  212650.    3829. o
   6  -2  14  159035.  183258.    3591. o
  -4   2  14   99081.  122965.    2455. o
   4  -2  14   93228.  117763.     387. o
  -2   2  14  991127.  943447.    5718. o
   2  -2  14  991781. 1013560.    4320. o
   0   2  14  110601.  115917.    1873. o
   0  -2  14  121502.  119525.    2045. o
   2   2  14  996417.  966798.    7560. o
  -2  -2  14  986491.  985759.    6852. o
   4   2  14   90953.  115638.    1062. o
  -4  -2  14  101356.  123552.    1938. o
   6   2  14  159736.  194640.    3768. o
  -6  -2  14  156861.  206973.     550. o
   8   2  14   19128.   31377.     821. o
  -8  -2  14   19427.   32076.    1300. o
  -8   4  14   28061.   45864.     866. o
   8  -4  14   28289.   46730.     923. o
  -6   4  14   28917.   47150.     819. o
   6  -4  14   27489.   44214.     748. o
  -4   4  14  248882.  317102.    5728. o
   4  -4  14  249253.  312991.    6015. o
  -2   4  14   92427.  118938.    2300. o
   2  -4  14   96953.  106968.    1535. o
   0   4  14  595730.  571113.    4028. o
   0  -4  14  591060.  531905.    5857. o
   2   4  14   89830.  111079.    1493. o
  -2  -4  14   99551.  103137.    2705. o
   4   4  14  251870.  282788.    1408. o
  -4  -4  14  246265.  284941.    1589. o
   6   4  14   27669.   41753.    1081. o
  -6  -4  14   28736.   47374.    1850. o
   8   4  14   28309.   38984.    1055. o
  -8  -4  14   28042.   46535.    1971. o
  -6   6  14   44996.   60629.     442. o
   6  -6  14   45047.   66642.    1230. o
  -4   6  14   27072.   44186.     594. o
   4  -6  14   28372.   47374.    1488. o
  -2   6  14  160726.  188488.    3615. o
   2  -6  14  159619.   92958.    2665. o
   0   6  14   56200.   88847.     298. o
   0  -6  14   60829.   79282.    1826. o
   2   6  14  161526.  194920.    1498. o
  -2  -6  14  158819.  161026.    2706. o
   4   6  14   27278.   44521.    1357. o
  -4  -6  14   28166.   39376.    1467. o
   6   6  14   45408.   61692.    1243. o
  -6  -6  14   44636.   57106.    1689. o
  -4   8  14   28472.   36355.     750. o
   4  -8  14   28277.   37110.    1859. o
  -2   8  14   18366.   26959.     678. o
   0   8  14   45896.   61133.     629. o
   2   8  14   18936.   30790.    1511. o
  -2  -8  14   19066.   18262.    1736. o
   4   8  14   28494.   39963.    1137. o
  -4  -8  14   28255.   33223.    2049. o
  -9   1  15   20391.   32049.    1127. o
   9  -1  15   19722.   27742.     982. o
  -7   1  15   89163.  111611.     517. o
   7  -1  15   96043.  108059.     844. o
  -5   1  15  234278.  252333.     666. o
   5  -1  15  230751.  234855.    1425. o
  -3   1  15  682075.  715136.   14181. o
   3  -1  15  700398.  740361.   14602. o
  -1   1  15 1031860. 1058690.    2848. o
   1  -1  15 1032540. 1016580.    7872. o
   1   1  15 1037330. 1050140.    7032. o
  -1  -1  15 1027060. 1026360.    7687. o
   3   1  15  694753.  722910.    1378. o
  -3  -1  15  687719.  718743.    1781. o
   5   1  15  239823.  239805.    1707. o
  -5  -1  15  225207.  260164.    5169. o
   7   1  15   92300.  112170.     732. o
  -7  -1  15   92906.  115498.    1073. o
   9   1  15   20678.   27910.    1015. o
  -9  -1  15   19435.   28050.    1124. o
  -9   3  15   17049.   30259.    1004. o
   9  -3  15   18222.   27238.     917. o
  -7   3  15   39319.   57777.     750. o
   7  -3  15   38235.   54896.     867. o
  -5   3  15  217416.  295904.    5152. o
   5  -3  15  224760.  266372.    5023. o
  -3   3  15  297018.  315731.    6250. o
   3  -3  15  298171.  295764.    2619. o
  -1   3  15  694515.  752805.   14668. o
   1  -3  15  676960.  719694.    2502. o
   1   3  15  688072.  718995.    5014. o
  -1  -3  15  683403.  674082.    6126. o
   3   3  15  306324.  284046.    3429. o
  -3  -3  15  288865.  313075.    3146. o
   5   3  15  220130.  240392.    1095. o
  -5  -3  15  222045.  276859.    1181. o
   7   3  15   39654.   52687.    1085. o
  -7  -3  15   37900.   57385.    1937. o
   9   3  15   17399.   26903.    1122. o
  -9  -3  15   17873.   30454.    1998. o
  -7   5  15   36992.   64601.     660. o
   7  -5  15   37775.   58644.     860. o
  -5   5  15   41942.   64237.     169. o
   5  -5  15   42088.   68124.    1444. o
  -3   5  15  223726.  253676.    4848. o
   3  -5  15  216061.  269448.    5234. o
  -1   5  15  224899.  236561.     817. o
   1   5  15  235260.  250180.    2161. o
  -1  -5  15  220037.  193242.    3249. o
   3   5  15  218440.  230968.    1629. o
  -3  -5  15  221347.  238938.    3168. o
   5   5  15   43124.   56854.    1160. o
  -5  -5  15   40907.   59595.    1511. o
   7   5  15   36883.   56155.    1169. o
  -7  -5  15   37885.   60490.    1539. o
  -5   7  15   37969.   55652.     531. o
   5  -7  15   37046.   55959.    1238. o
  -3   7  15   36602.   46367.     552. o
   3  -7  15   37930.   51121.    1636. o
  -1   7  15   94548.  105458.     692. o
   1   7  15   90271.  106856.    1351. o
  -1  -7  15   91796.   89434.    2097. o
   3   7  15   38223.   50590.    1223. o
  -3  -7  15   36309.   41641.    2183. o
   5   7  15   36950.   52799.    1554. o
  -5  -7  15   38065.   45612.    1364. o
  -3   9  15   18352.   21142.     735. o
  -1   9  15   19084.   22261.     846. o
   1   9  15   20177.   22428.     965. o
   3   9  15   17410.   24134.    1284. o
  -3  -9  15   18045.   19520.    1926. o
   0   0  16 1185360. 1198880.    9249. o
   2   0  16  270056.  297889.    2642. o
  -2   0  16  273974.  304937.    1091. o
   4   0  16  306370.  261003.    3128. o
  -4   0  16  299383.  278118.    2638. o
   6   0  16   73027.   80988.     926. o
  -6   0  16   74692.   87197.    1151. o
   8   0  16   15707.   17842.     827. o
  -8   0  16   15092.   17115.     828. o
  -8   2  16   21776.   27602.     908. o
   8  -2  16   21498.   26875.     941. o
  -6   2  16   60762.   71312.     865. o
   6  -2  16   63529.   66390.     867. o
  -4   2  16  138587.  150874.     832. o
   4  -2  16  137292.  149951.     862. o
  -2   2  16  545667.  566415.   11293. o
   2  -2  16  546270.  630764.   12340. o
   0   2  16  267614.  265589.    2820. o
   0  -2  16  271047.  269392.    2866. o
   2   2  16  550546.  536576.    5007. o
  -2  -2  16  541390.  599023.    2843. o
   4   2  16  134538.  143016.    1413. o
  -4  -2  16  141342.  153000.    2050. o
   6   2  16   62962.   61664.    1110. o
  -6  -2  16   61330.   63622.    1513. o
   8   2  16   21556.   24582.     931. o
  -8  -2  16   21718.   25113.    1580. o
  -8   4  16    8914.   14430.     874. o
   8  -4  16    9436.   14486.     933. o
  -6   4  16   32615.   47430.     924. o
   6  -4  16   32242.   38844.     758. o
  -4   4  16   99588.  127104.    2397. o
   4  -4  16   99674.  121538.    1218. o
  -2   4  16  133426.  143380.     713. o
   2  -4  16  133830.  155069.    1756. o
   0   4  16  297252.  261814.    3151. o
   0  -4  16  291127.  244671.    3459. o
   2   4  16  130280.  133703.    2010. o
  -2  -4  16  136976.  140247.    2951. o
   4   4  16  100283.  111443.    1694. o
  -4  -4  16   98978.  122965.    1880. o
   6   4  16   31506.   37893.    1004. o
  -6  -4  16   33351.   43906.    1667. o
   8   4  16    9082.   11746.     914. o
  -8  -4  16    9269.   13368.    1558. o
  -6   6  16   14952.   24274.     682. o
   6  -6  16   14922.   23771.    1219. o
  -4   6  16   31161.   40410.     688. o
   4  -6  16   31293.   36970.    1216. o
  -2   6  16   61612.   62084.     858. o
   2  -6  16   59034.   64992.    1675. o
   0   6  16   68564.   73354.    1064. o
   0  -6  16   70025.   59035.    1732. o
   2   6  16   60963.   62028.    1583. o
  -2  -6  16   59683.   49219.    1790. o
   4   6  16   30320.   35600.    1104. o
  -4  -6  16   32133.   38005.    2551. o
   6   6  16   14703.   19268.    1326. o
  -6  -6  16   15171.   18681.    1387. o
  -4   8  16    9290.   11158.     748. o
   4  -8  16    8738.   13088.    1782. o
  -2   8  16   20386.   22876.     707. o
   0   8  16   14901.   15213.     781. o
   2   8  16   20452.   24889.    1322. o
  -2  -8  16   20580.   13647.    1309. o
   4   8  16    8885.   10879.    1029. o
  -4  -8  16    9143.    6656.    1430. o
  -9   1  17     738.    2433.    1006. o
   9  -1  17     609.    2349.     894. o
  -7   1  17    5979.    5118.     896. o
   7  -1  17    5833.    4307.     758. o
  -5   1  17    8481.    8669.     699. o
   5  -1  17    7052.    8949.     918. o
  -3   1  17   27377.   35125.     908. o
   3  -1  17   26370.   34621.    1664. o
  -1   1  17   13928.   14542.    1060. o
   1  -1  17   13804.   14710.    2096. o
   1   1  17   12926.   13200.    1426. o
  -1  -1  17   14805.   13340.    1737. o
   3   1  17   25617.   30147.    1202. o
  -3  -1  17   28131.   29448.    1109. o
   5   1  17    7603.    6572.     758. o
  -5  -1  17    7931.    6013.     954. o
   7   1  17    5672.    6348.     810. o
  -7  -1  17    6140.    5369.    1176. o
   9   1  17     636.     503.     951. <
  -9  -1  17     710.    1482.    1286. <
  -9   3  17    2140.    1426.    1063. <
   9  -3  17    2145.    1175.     784. <
  -7   3  17     861.    2181.     894. o
   7  -3  17     557.    2237.     614. o
  -5   3  17   20994.   20778.     729. o
   5  -3  17   20833.   20611.     701. o
  -3   3  17    3480.    3020.     560. o
   3  -3  17    3490.    3384.     895. o
  -1   3  17   27120.   30147.    1040. o
   1  -3  17   27802.   32300.    1939. o
   1   3  17   26260.   28385.    2399. o
  -1  -3  17   28663.   29112.    2040. o
   3   3  17    3560.    1398.    1427. <
  -3  -3  17    3411.    2237.    1595. <
   5   3  17   20307.   12249.     903. o
  -5  -3  17   21520.   15129.    1557. o
   7   3  17     663.    1734.     950. <
  -7  -3  17     754.    1846.    1454. <
   9   3  17    2135.     643.    1063. <
  -9  -3  17    2151.    1286.    1706. <
  -7   5  17    6880.    3440.     816. o
   7  -5  17    6838.    4810.     870. o
  -5   5  17     246.    1734.     586. o
   5  -5  17     255.    2153.     922. o
  -3   5  17   21048.   21673.     722. o
   3  -5  17   21050.   23267.    1501. o
  -1   5  17    7564.    6264.     786. o
   1   5  17    8193.    6935.    1260. o
  -1  -5  17    8335.    2657.    1794. <
   3   5  17   20448.   13368.    1009. o
  -3  -5  17   21650.   12109.    1839. o
   5   5  17     320.    1175.     979. <
  -5  -5  17     180.     923.    1091. <
   7   5  17    6749.     364.     983. <
  -7  -5  17    6969.    2153.    1458. <
  -5   7  17    6829.    3859.     649. o
   5  -7  17    6842.    3468.    1094. o
  -3   7  17     583.    1203.     587. o
   3  -7  17     878.    1790.    1426. <
  -1   7  17    5835.    4195.     674. o
   1   7  17    5651.    5481.    1063. o
  -1  -7  17    6104.    2852.    1624. <
   3   7  17     705.     559.     867. <
  -3  -7  17     756.    1538.    1286. <
   5   7  17    6727.    1874.    1151. <
  -5  -7  17    6944.    1063.    1681. <
  -3   9  17    2061.    1426.     700. o
  -1   9  17     563.    1902.     698. o
   1   9  17     595.    2041.     894. o
   3   9  17    2050.    1314.    1035. <
  -3  -9  17    2066.   -2657.    1257. <
   0   0  18   75028.   55036.    3019. o
   2   0  18   21501.   31461.    1518. o
  -2   0  18   20042.   30035.    1083. o
   4   0  18   65323.   60434.    1189. o
  -4   0  18   66901.   61832.    1246. o
   6   0  18    2546.    3132.     754. o
  -6   0  18    2808.    2377.     895. o
   8   0  18   13636.   20247.     859. o
  -8   0  18   12546.   17478.    1014. o
  -8   2  18    3369.    1790.     701. o
   8  -2  18    2942.    1986.     896. o
  -6   2  18   28132.   40214.     915. o
   6  -2  18   28907.   34510.     928. o
  -4   2  18     251.    1930.     754. o
   4  -2  18    1046.    1818.     867. o
  -2   2  18   74146.   74137.    1119. o
   2  -2  18   73898.   56798.    1764. o
   0   2  18   20826.   26819.    1169. o
   0  -2  18   19548.   26903.    1249. o
   2   2  18   72143.   64377.    2462. o
  -2  -2  18   75902.   62671.    2421. o
   4   2  18     830.    2349.    1062. o
  -4  -2  18     467.    2153.    1482. <
   6   2  18   28771.   31154.     930. o
  -6  -2  18   28268.   36243.    1462. o
   8   2  18    2585.    1902.     839. o
  -8  -2  18    3726.     419.    1455. <
  -8   4  18    6195.   14458.     866. o
   8  -4  18    6418.   14710.     865. o
  -6   4  18    4279.    1175.     646. <
   6  -4  18    4138.    1091.     785. <
  -4   4  18   31960.   45752.     596. o
   4  -4  18   31919.   44465.    1507. o
  -2   4  18     991.    1314.     671. <
   2  -4  18     237.    1678.    1174. <
   0   4  18   60448.   56015.    1419. o
   0  -4  18   61831.   51624.    1606. o
   2   4  18     745.    2265.    1398. <
  -2  -4  18     483.    2265.    1538. <
   4   4  18   31626.   36663.    1536. o
  -4  -4  18   32253.   35488.    1434. o
   6   4  18    3361.    1398.    1008. <
  -6  -4  18    5056.    1091.    1316. <
   8   4  18    6481.   13647.     928. o
  -8  -4  18    6132.   16276.    1714. o
  -6   6  18    7277.   19912.     712. o
   6  -6  18    7281.   21813.    1610. o
  -4   6  18    4324.    1454.     674. o
   4  -6  18    4240.    1035.    1372. <
  -2   6  18   26629.   27658.     745. o
   2  -6  18   25912.   21478.    1197. o
   0   6  18    2690.    1678.     868. <
   0  -6  18    2920.    2153.    1147. <
   2   6  18   26473.   33615.    1297. o
  -2  -6  18   26069.   25085.    1542. o
   4   6  18    3435.    1398.    1064. <
  -4  -6  18    5128.    -252.    2098. <
   6   6  18    7309.   17730.    1398. o
  -6  -6  18    7249.   14262.    1354. o
  -4   8  18    6018.   10879.     595. o
   4  -8  18    5838.   15018.    1660. o
  -2   8  18    2973.    2097.     644. o
   0   8  18   12644.   17367.     815. o
   2   8  18    2565.     531.    1231. <
  -2  -8  18    3661.    1566.    1679. <
   4   8  18    6090.   10934.    1023. o
  -4  -8  18    5767.    8446.    1450. o
  -9   1  19    1468.    8557.    1108. o
   9  -1  19    1463.    6208.     860. o
  -7   1  19    4395.    9368.     997. o
   7  -1  19    3874.    9033.     656. o
  -5   1  19   12480.   21729.     931. o
   5  -1  19   13619.   19100.     779. o
  -3   1  19   11094.   15633.     645. o
   3  -1  19   10604.   14542.    1163. o
  -1   1  19   39451.   35824.    1287. o
   1  -1  19   39418.   35572.    1949. o
   1   1  19   39189.   37166.    1912. o
  -1  -1  19   39682.   35265.    1731. o
   3   1  19   11318.   12361.    1340. o
  -3  -1  19   10380.   13060.     829. o
   5   1  19   12800.   18877.     864. o
  -5  -1  19   13299.   17758.    1073. o
   7   1  19    3984.    8669.     715. o
  -7  -1  19    4285.    9061.    1054. o
   9   1  19    1478.    6096.     860. o
  -9  -1  19    1452.    6628.    1141. o
  -9   3  19    2744.    3020.     979. o
   9  -3  19    2691.    5006.     724. o
  -7   3  19    4867.   13340.     954. o
   7  -3  19    5234.   12696.     814. o
  -5   3  19    6226.   12333.     905. o
   5  -3  19    5750.   11550.     821. o
  -3   3  19   30276.   35181.     725. o
   3  -3  19   30247.   35265.    1193. o
  -1   3  19   10151.   15381.     902. o
   1  -3  19   10770.   15325.    1809. o
   1   3  19   10967.   14262.    2260. o
  -1  -3  19    9955.   11242.    1676. o
   3   3  19   30043.   37138.    2151. o
  -3  -3  19   30480.   34258.    1658. o
   5   3  19    5199.    6572.     948. o
  -5  -3  19    6777.    5593.    1567. o
   7   3  19    5363.   11158.     850. o
  -7  -3  19    4737.    9452.    1560. o
   9   3  19    2622.    5789.     919. o
  -9  -3  19    2813.    6460.    1675. o
  -7   5  19    5669.   10012.     884. o
   7  -5  19    5618.    9788.    1532. o
  -5   5  19   10031.   16779.     690. o
   5  -5  19   10105.   17506.    1120. o
  -3   5  19    5371.   10711.     623. o
   3  -5  19    5642.   11885.    1358. o
  -1   5  19   13505.   18597.     984. o
   1   5  19   12570.   18597.    1322. o
  -1  -5  19   13224.   13591.    1397. o
   3   5  19    4742.    6069.    1313. o
  -3  -5  19    6272.    7103.    1481. o
   5   5  19   10632.   16164.    1440. o
  -5  -5  19    9505.   15157.    1384. o
   7   5  19    5292.    6292.    1145. o
  -7  -5  19    5995.    7663.    1256. o
  -5   7  19    5413.    8334.     663. o
   5  -7  19    5371.    5873.    1146. o
  -3   7  19    5296.    9704.     571. o
   3  -7  19    5008.   12109.    1526. o
  -1   7  19    3450.    7411.     718. o
   1   7  19    3576.    9564.    1108. o
  -1  -7  19    3811.    4447.    1230. o
   3   7  19    5444.    9648.    1082. o
  -3  -7  19    4861.    6908.    1928. o
   5   7  19    5041.    6096.    1173. o
  -5  -7  19    5743.    5845.    1734. o
  -3   9  19    2441.    3048.     754. o
  -1   9  19    1414.    5090.     694. o
   1   9  19    1432.    2545.     866. o
   3   9  19    2363.    3412.    1146. o
  -3  -9  19    2549.    5621.    1844. o
   0   0  20  111016.  119441.    2846. o
   2   0  20    1401.    1566.    1174. <
  -2   0  20    1927.    1510.     867. <
   4   0  20   30507.   14598.     985. o
  -4   0  20   28084.   15856.    1096. o
   6   0  20    2833.    3636.     754. o
  -6   0  20    3169.    4195.     894. o
   8   0  20    2119.    1958.     643. o
  -8   0  20    1671.     951.     951. <
  -8   2  20    1980.    2685.     698. o
   8  -2  20    1899.    2405.     783. o
  -6   2  20    5061.    3300.     757. o
   6  -2  20    5810.    2964.     898. o
  -4   2  20    1696.    2237.     671. o
   4  -2  20    1329.    2852.    1034. o
  -2   2  20   52468.   50562.     924. o
   2  -2  20   52580.   47542.    1608. o
   0   2  20    1552.     699.     951. <
   0  -2  20    2012.    1566.    1398. <
   2   2  20   53380.   49164.    1684. o
  -2  -2  20   51668.   48408.    2173. o
   4   2  20    1186.    1790.     895. <
  -4  -2  20    1839.    2181.    1342. <
   6   2  20    5768.     811.    1010. <
  -6  -2  20    5103.    1203.    1428. <
   8   2  20    1953.    1426.    1007. <
  -8  -2  20    1926.    1594.    1119. <
  -8   4  20     465.    2125.     726. o
   8  -4  20     574.     308.     867. <
  -6   4  20     643.    1846.     642. o
   6  -4  20     518.    1818.    1342. <
  -4   4  20    5994.    8949.     605. o
   4  -4  20    6007.    6516.     978. o
  -2   4  20    1379.    2237.     782. o
   2  -4  20    1662.    2433.    1202. o
   0   4  20   28109.   14123.    1206. o
   0  -4  20   25985.   11857.    1146. o
   2   4  20    1215.    1175.    1258. <
  -2  -4  20    1826.    1370.    1315. <
   4   4  20    6102.    3580.    1903. <
  -4  -4  20    5899.    3104.    1289. o
   6   4  20     540.    1007.     923. <
  -6  -4  20     621.    2741.    1397. <
   8   4  20     514.    1846.    1062. <
  -8  -4  20     525.    1091.    1650. <
  -6   6  20     526.    4558.     666. o
   6  -6  20     519.    3496.    1089. o
  -4   6  20     461.    1398.     699. <
   4  -6  20     576.    2713.    1509. <
  -2   6  20    5145.    3160.     591. o
   2  -6  20    4478.    5705.    1341. o
   0   6  20    2517.    2825.     839. o
   0  -6  20    2812.    1958.    1650. <
   2   6  20    5097.     895.    1009. <
  -2  -6  20    4526.    1007.    1931. <
   4   6  20     486.      28.    1147. <
  -4  -6  20     552.     587.    1930. <
   6   6  20     474.     951.    1174. <
  -6  -6  20     571.      84.    1426. <
  -4   8  20     552.    2265.     810. o
   4  -8  20     440.     419.    1734. <
  -2   8  20    1710.    2601.     670. o
   0   8  20    1861.       0.     783. <
   2   8  20    1772.    2153.    1118. <
  -2  -8  20    1734.    1454.    1287. <
   4   8  20     484.    -112.    1175. <
  -4  -8  20     509.    2041.    2013. <
  -9   1  21    4879.    6991.     835. o
   9  -1  21    4549.    6600.     863. o
  -7   1  21   20102.   26679.     905. o
   7  -1  21   22266.   24302.     852. o
  -5   1  21   45253.   48241.    1113. o
   5  -1  21   43665.   44409.     970. o
  -3   1  21  150879.  175568.    3476. o
   3  -1  21  152628.  163179.    2057. o
  -1   1  21  214897.  238546.    1656. o
   1  -1  21  215382.  232674.    3305. o
   1   1  21  218797.  236505.    2920. o
  -1  -1  21  211480.  221320.    2644. o
   3   1  21  148432.  159572.    2745. o
  -3  -1  21  155074.  159404.    1595. o
   5   1  21   46356.   42060.    1243. o
  -5  -1  21   42561.   48101.    1290. o
   7   1  21   20601.   24330.     898. o
  -7  -1  21   21767.   25337.    1126. o
   9   1  21    5010.    4363.     728. o
  -9  -1  21    4418.    7607.    1254. o
  -7   3  21    7388.   12081.     965. o
   7  -3  21    6547.   11690.     679. o
  -5   3  21   53228.   77828.    1504. o
   5  -3  21   54313.   69606.    1228. o
  -3   3  21   50865.   56211.     835. o
   3  -3  21   51191.   53414.    1800. o
  -1   3  21  152124.  171765.    1254. o
   1  -3  21  149480.  163683.    2814. o
   1   3  21  147334.  163990.    2532. o
  -1  -3  21  154269.  138318.    2826. o
   3   3  21   53498.   55344.    2056. o
  -3  -3  21   48558.   50953.    1659. o
   5   3  21   53119.   68152.    1395. o
  -5  -3  21   54422.   70166.    1843. o
   7   3  21    7134.   11214.     854. o
  -7  -3  21    6801.   11438.    1446. o
  -7   5  21   10728.   18290.     682. o
   7  -5  21   11143.   21813.    1590. o
  -5   5  21    6008.   12221.     761. o
   5  -5  21    5978.   10627.    1165. o
  -3   5  21   54347.   74584.     139. o
   3  -5  21   53080.   76514.    1564. o
  -1   5  21   42424.   39655.    1145. o
   1  -5  21   44530.   41193.    1783. o
   1   5  21   45497.   43570.    1553. o
  -1  -5  21   41456.   34593.    1663. o
   3   5  21   52984.   64265.    1685. o
  -3  -5  21   54442.   61245.    2360. o
   5   5  21    5763.   10934.    1698. o
  -5  -5  21    6223.   11102.    1361. o
   7   5  21   10909.   13815.    1166. o
  -7  -5  21   10962.   15381.    1668. o
  -5   7  21   11298.   17702.     719. o
   5  -7  21   10872.   15968.    1328. o
  -3   7  21    6278.   10571.     655. o
   3  -7  21    7172.   10683.    1588. o
  -1   7  21   22386.   23491.     661. o
   1   7  21   20484.   25924.    1316. o
  -1  -7  21   21948.   20331.    1851. o
   3   7  21    6949.    9480.    1085. o
  -3  -7  21    6501.    7970.    1956. o
   5   7  21   11031.   11913.    2236. o
  -5  -7  21   11139.   13451.    1673. o
  -1   9  21    4534.    6432.     779. o
   1   9  21    5061.    4195.     980. o
   0   0  22  474211.  496025.    4935. o
   2   0  22   49575.   67313.    1742. o
  -2   0  22   53591.   63901.    1304. o
   4   0  22  208982.  152580.    3168. o
  -4   0  22  198808.  220369.     977. o
   6   0  22   44716.   68012.     709. o
  -6   0  22   46772.   75479.     758. o
   8   0  22   21199.   36215.     969. o
  -8   0  22   20758.   36775.    1147. o
  -8   2  22   17193.   31405.     932. o
   8  -2  22   16627.   27574.     874. o
  -6   2  22   62404.   87672.     349. o
   6  -2  22   64905.   82778.     923. o
  -4   2  22   51736.   81268.    1573. o
   4  -2  22   49564.   77157.    1584. o
  -2   2  22  323741.  340481.     722. o
   2  -2  22  324743.  328763.    3365. o
   0   2  22   48838.   69327.    1492. o
   0  -2  22   52357.   63342.    1719. o
   2   2  22  331830.  320290.    3693. o
  -2  -2  22  316654.  316486.    3416. o
   4   2  22   48228.   72822.    1632. o
  -4  -2  22   53072.   82219.    2001. o
   6   2  22   65159.   72655.    1142. o
  -6  -2  22   62150.   92007.    1658. o
   8   2  22   16813.   24917.    1017. o
  -8  -2  22   17006.   30343.    1593. o
  -8   4  22   13873.   22904.     810. o
   8  -4  22   14304.   25868.    1580. o
  -6   4  22   22479.   38201.     580. o
   6  -4  22   21897.   42592.    1526. o
  -4   4  22  101264.  115833.     204. o
   4  -4  22  101598.  128166.    1646. o
  -2   4  22   49561.   75899.     358. o
   2  -4  22   51111.   56546.    1515. o
   0   4  22  213011.  179315.    2674. o
   0  -4  22  204092.  187034.    2600. o
   2   4  22   48036.   80205.    1985. o
  -2  -4  22   52636.   69970.    2190. o
   4   4  22  103956.  112198.    2361. o
  -4  -4  22   98906.  111359.    2222. o
   6   4  22   21789.   30035.    1093. o
  -6  -4  22   22587.   38564.    1767. o
   8   4  22   14091.   19744.    1037. o
  -8  -4  22   14085.   26707.    1776. o
  -6   6  22   20256.   31042.     771. o
   6  -6  22   20281.   33587.    1352. o
  -4   6  22   22120.   35516.     660. o
   4  -6  22   22601.   39320.    1556. o
  -2   6  22   66463.   83226.     458. o
   0   6  22   45082.   68935.    1013. o
   0  -6  22   46884.   46311.    1738. o
   2   6  22   66753.   72766.    1725. o
  -2  -6  22   64047.   62112.    2558. o
   4   6  22   21996.   34538.    1529. o
  -4  -6  22   22725.   30119.    1588. o
   6   6  22   20460.   27854.    1875. o
  -6  -6  22   20077.   27966.    2128. o
  -4   8  22   14684.   21981.     881. o
   4  -8  22   14250.   11606.    1460. o
  -2   8  22   17009.   26316.     767. o
   0   8  22   22114.   27826.     996. o
   2   8  22   17223.   25253.    1306. o
  -2  -8  22   17343.   20331.    1865. o
   4   8  22   14442.   18485.    2229. o
  -4  -8  22   14492.   15689.    2263. o
  -9   1  23    7541.   14123.    1242. o
   9  -1  23    6766.   11578.     738. o
  -7   1  23   26239.   40242.     897. o
   7  -1  23   26766.   37250.     846. o
  -5   1  23   36628.   45836.     801. o
   5  -1  23   31953.   42927.    1254. o
  -3   1  23   59332.   64517.     855. o
   3  -1  23   59288.   65440.    1615. o
  -1   1  23   29481.   26344.    1194. o
   1  -1  23   29776.   27378.    2357. o
   1   1  23   31871.   29532.    1884. o
  -1  -1  23   27387.   26428.    1403. o
   3   1  23   54004.   61748.    2268. o
  -3  -1  23   64615.   62084.    1292. o
   5   1  23   34799.   44242.     960. o
  -5  -1  23   33782.   48632.    1144. o
   7   1  23   25323.   37502.     924. o
  -7  -1  23   27682.   44158.    1147. o
   9   1  23    7264.   11298.    1053. o
  -9  -1  23    7044.   10403.    1139. o
  -7   3  23   12062.   17814.    1040. o
   7  -3  23   10419.   16220.     725. o
  -5   3  23   52819.   75339.    1470. o
   5  -3  23   52679.   73074.    1215. o
  -3   3  23   22757.   31154.     729. o
   3  -3  23   22938.   32636.    1603. o
  -1   3  23   62147.   65328.    1214. o
   1  -3  23   60783.   64265.    1385. o
   1   3  23   56115.   67984.    2406. o
  -1  -3  23   66815.   57861.    2356. o
   3   3  23   24219.   29811.    1368. o
  -3  -3  23   21476.   29420.    1415. o
   5   3  23   51859.   61552.    1467. o
  -5  -3  23   53639.   76066.    2015. o
   7   3  23   11437.   16164.    1074. o
  -7  -3  23   11045.   17814.    1520. o
  -7   5  23   14937.   19716.     724. o
   7  -5  23   15313.   18625.    1641. o
  -5   5  23    9713.   18038.     738. o
   5  -5  23    9731.   17618.    1631. o
  -3   5  23   54642.   71424.     403. o
   3  -5  23   54548.   66838.    1367. o
  -1   5  23   34252.   46535.    1050. o
   1  -5  23   39105.   45696.    1775. o
   1   5  23   37501.   42088.    1620. o
  -1  -5  23   35855.   31601.    1811. o
   3   5  23   53707.   64377.    2130. o
  -3  -5  23   55484.   61105.    2226. o
   5   5  23    9865.   17311.    2027. o
  -5  -5  23    9579.   18262.    1770. o
   7   5  23   15400.   16164.    1368. o
  -7  -5  23   14851.   14067.    1596. o
  -5   7  23   15718.   15996.     838. o
   5  -7  23   15412.   19520.    1327. o
  -3   7  23   10925.   15940.     787. o
   3  -7  23   12637.   19492.    1659. o
  -1   7  23   28867.   39487.     740. o
   1   7  23   27218.   36747.    1307. o
  -1  -7  23   29671.   23687.    1537. o
   3   7  23   12088.   16779.    1976. o
  -3  -7  23   11474.   14039.    2149. o
   5   7  23   15817.   16276.    2152. o
  -5  -7  23   15313.   16108.    1564. o
  -1   9  23    7165.    8725.     863. o
   1   9  23    7734.    7383.     840. o
   0   0  24    2457.    2908.    1818. <
   2   0  24    7630.   10599.    1870. o
  -2   0  24    9095.    9788.     921. o
   4   0  24    6664.    5537.    1679. o
  -4   0  24    5117.    4083.     701. o
   6   0  24    6557.    7858.    1032. o
  -6   0  24    7660.    7970.     978. o
   8   0  24    1186.    1734.     783. o
  -8   0  24     847.    1986.    1034. <
  -8   2  24    3448.    4726.     865. o
   8  -2  24    3156.    3971.     810. o
  -6   2  24    2247.    3971.     669. o
   6  -2  24    2790.    4782.    1341. o
  -4   2  24    5172.    3580.     674. o
   4  -2  24    4059.    2014.    1399. <
  -2   2  24    5397.    8222.     691. o
   2  -2  24    5487.    6740.    1621. o
   0   2  24    7106.    9340.    1282. o
   0  -2  24    8390.    8250.    1371. o
   2   2  24    6123.    2880.    1094. o
  -2  -2  24    4761.    2265.    1148. <
   4   2  24    3647.    2573.    1930. <
  -4  -2  24    5584.    2825.    1261. o
   6   2  24    2959.     839.    1008. <
  -6  -2  24    2079.    1258.    1343. <
   8   2  24    3250.    3244.     839. o
  -8  -2  24    3354.    4251.    1482. o
  -8   4  24     521.    2629.     894. o
   8  -4  24     645.    2041.    1034. <
  -6   4  24    3383.    3859.     642. o
   6  -4  24    3103.    2573.    1399. <
  -4   4  24    3535.    6963.     635. o
   4  -4  24    3603.    8474.    1476. o
  -2   4  24    3846.    2377.     812. o
   0   4  24    6560.    3356.     899. o
   0  -4  24    5204.    3244.    1009. o
   2   4  24    3375.    2405.    1678. <
  -2  -4  24    5182.    1986.    1261. <
   4   4  24    4081.    2153.    1232. <
  -4  -4  24    3057.    4447.    1257. o
   6   4  24    3116.    2852.    1231. o
  -6  -4  24    3370.    2741.    1510. <
   8   4  24     642.    2517.    1146. o
  -8  -4  24     523.    -280.    1426. <
  -6   6  24     989.    3803.     808. o
   6  -6  24    1003.    1678.    1286. <
  -4   6  24    3220.    2097.     700. o
   4  -6  24    3469.    3999.    1398. o
  -2   6  24    2655.    3803.     642. o
   0   6  24    6621.    8613.     918. o
   0  -6  24    7588.    3132.    1737. <
   2   6  24    2848.    2685.    1790. <
  -2  -6  24    2031.    1958.    1482. <
   4   6  24    3235.    2153.    1706. <
  -4  -6  24    3454.    2349.    1287. <
   6   6  24    1101.    2097.    1594. <
  -6  -6  24     891.    1091.    1314. <
  -4   8  24     645.     867.     671. <
   4  -8  24     536.    3384.    1845. <
  -2   8  24    3319.    3691.     755. o
   0   8  24    1089.    2125.     782. o
   2   8  24    3426.    1958.    1092. <
  -2  -8  24    3492.    1342.    1315. <
   4   8  24     642.     -28.    1398. <
  -4  -8  24     538.    2964.    2097. <
  -7   1  25    6712.   10823.     770. o
   7  -1  25    6379.    8166.     863. o
  -5   1  25   19936.   27182.     750. o
   5  -1  25   19699.   18485.    1152. o
  -3   1  25   13866.   14067.     810. o
   3  -1  25   12599.   11438.    1150. o
  -1   1  25   20443.   12249.    1229. o
   1  -1  25   20290.   12053.    1697. o
   1   1  25   19203.   11522.    1640. o
  -1  -1  25   21530.    9788.    1129. o
   3   1  25   13125.   12948.    1986. o
  -3  -1  25   13340.   11690.     956. o
   5   1  25   19587.   22652.    1724. o
  -5  -1  25   20047.   25505.    1145. o
   7   1  25    6582.    9592.     859. o
  -7  -1  25    6509.   12864.    1329. o
  -7   3  25    6131.   10851.     910. o
   7  -3  25    6252.   11550.    1417. o
  -5   3  25    5380.   10319.     625. o
   5  -3  25    4876.    9592.    1053. o
  -3   3  25   29942.   31489.     767. o
   3  -3  25   29926.   34901.    1708. o
  -1   3  25   12416.   12864.    1061. o
   1  -3  25   13667.   12920.    1316. o
   1   3  25   13017.   11074.    1403. o
  -1  -3  25   13066.    8949.    1379. o
   3   3  25   29810.   32188.    1835. o
  -3  -3  25   30058.   32664.    1382. o
   5   3  25    4955.    6516.    1424. o
  -5  -3  25    5301.    7523.    1339. o
   7   3  25    6410.    8809.    1142. o
  -7  -3  25    5973.    9229.    1449. o
  -7   5  25    2439.    5565.     750. o
   7  -5  25    2359.    7243.    1589. o
  -5   5  25   10275.   14766.     676. o
   5  -5  25   10348.   12277.    1198. o
  -3   5  25    4492.    9732.     654. o
   3  -5  25    4954.   11270.    1444. o
  -1   5  25   19726.   20163.     948. o
   1  -5  25   19904.   25700.    1628. o
   1   5  25   19598.   22233.    1556. o
  -1  -5  25   20031.   15577.    2024. o
   3   5  25    4581.    6740.    1732. o
  -3  -5  25    4864.    6516.    1256. o
   5   5  25   10864.   11969.    1424. o
  -5  -5  25    9759.   12948.    1335. o
   7   5  25    2319.    2181.    2069. <
  -7  -5  25    2479.    3580.    1705. o
  -5   7  25    2193.    5146.     835. o
   5  -7  25    2252.    5285.    1648. o
  -3   7  25    6352.   11913.     735. o
   3  -7  25    6288.   13647.    1580. o
  -1   7  25    5929.    9984.     799. o
   1   7  25    6161.   10823.    1277. o
  -1  -7  25    6044.    7159.    1369. o
   3   7  25    6533.    8306.    1368. o
  -3  -7  25    6107.    8977.    2066. o
   5   7  25    2147.    5677.    1955. o
  -5  -7  25    2298.    3216.    1342. o
   0   0  26    3556.     671.    1176. <
   2   0  26   32677.   41221.    2141. o
  -2   0  26   31865.   42759.    1104. o
   4   0  26   32562.   24778.    1438. o
  -4   0  26   34529.   28637.     974. o
   6   0  26    8003.   17786.    1285. o
  -6   0  26    8459.   19492.    1018. o
   8   0  26   11866.   18094.     807. o
  -8   0  26   11515.   21589.    1334. o
  -8   2  26    3159.    9145.    1080. o
   8  -2  26    2966.    6572.     861. o
  -6   2  26   22207.   33083.     632. o
   6  -2  26   21982.   29392.    1560. o
  -4   2  26   15774.   28050.     643. o
   4  -2  26   15863.   26204.    1697. o
  -2   2  26   23276.   14346.     808. o
   2  -2  26   23054.   16640.    1752. o
   0   2  26   33327.   39739.    1553. o
   0  -2  26   32616.   35544.    1407. o
   2   2  26   21488.   12305.    1233. o
  -2  -2  26   24841.   10851.    1304. o
   4   2  26   16032.   23966.    1934. o
  -4  -2  26   15604.   25505.    1500. o
   6   2  26   22151.   26567.     977. o
  -6  -2  26   22038.   33782.    1766. o
   8   2  26    2955.    7691.    1112. o
  -8  -2  26    3170.    9452.    1530. o
  -6   4  26    5200.   11158.     649. o
   6  -4  26    5205.   12724.    1553. o
  -4   4  26   21793.   34510.     706. o
   4  -4  26   21768.   32832.    1306. o
  -2   4  26   16472.   27238.     659. o
   0   4  26   30582.   25085.    1262. o
   0  -4  26   32306.   23295.    1335. o
   2   4  26   16666.   28077.    1862. o
  -2  -4  26   16246.   21394.    1294. o
   4   4  26   21592.   29000.    1418. o
  -4  -4  26   21969.   24945.    1356. o
   6   4  26    5339.   10599.    2035. o
  -6  -4  26    5066.   12277.    1441. o
  -6   6  26    4465.   10907.     821. o
   6  -6  26    4496.   13479.    1804. o
  -4   6  26    5281.   11997.     703. o
   4  -6  26    5312.   13004.    1609. o
  -2   6  26   21050.   29616.     793. o
   0   6  26    8365.   18877.    1108. o
   0  -6  26    8765.   12277.    1475. o
   2   6  26   21242.   27742.    2020. o
  -2  -6  26   21099.   26595.    2024. o
   4   6  26    5434.    7439.    1788. o
  -4  -6  26    5159.   11074.    1866. o
   6   6  26    4712.    8054.    1674. o
  -6  -6  26    4249.    4419.    1902. o
  -2   8  26    2871.    7719.     801. o
   0   8  26   11318.   13479.     971. o
   2   8  26    2858.    6069.    1339. o
  -2  -8  26    3051.    6264.    1395. o
  -7   1  27    1414.    1734.     923. <
   7  -1  27    1429.    2181.    1062. o
  -5   1  27    2877.    4307.     725. o
   5  -1  27    2999.    5369.    1564. o
  -3   1  27    1091.    2489.     810. o
   3  -1  27    1112.     951.    1482. <
  -1   1  27    1553.    2265.    1174. <
   1  -1  27    1558.    2209.    2237. <
   1   1  27    1596.     671.    1566. <
  -1  -1  27    1515.     895.    1091. <
   3   1  27    1074.    1678.    1818. <
  -3  -1  27    1129.    1510.     923. <
   5   1  27    3142.    3747.    1146. o
  -5  -1  27    2733.    3244.     810. o
   7   1  27    1414.    3048.    1062. o
  -7  -1  27    1429.    2265.    1146. <
  -7   3  27     870.    2769.     585. o
   7  -3  27     886.     727.    1482. <
  -5   3  27    2160.    4447.     555. o
   5  -3  27    2046.    5258.    1087. o
  -3   3  27    4654.    6152.     724. o
   3  -3  27    4705.    4111.    1091. o
  -1   3  27    1140.    2769.     838. o
   1  -3  27    1111.    3468.    1229. o
   1   3  27    1097.    2405.    1230. <
  -1  -3  27    1155.       0.    1734. <
   3   3  27    5069.    6320.    1033. o
  -3  -3  27    4289.    4251.    1091. o
   5   3  27    1889.    1762.    1314. <
  -5  -3  27    2317.    2321.    1426. <
   7   3  27     956.    1874.    1062. <
  -7  -3  27     801.    2573.    1146. o
  -7   5  27    1966.    1650.     811. o
   7  -5  27    1909.    3384.    1202. o
  -5   5  27    1400.    2657.     642. o
   5  -5  27    1422.    2797.    1202. o
  -3   5  27    1938.    4419.     696. o
   3  -5  27    1997.    4419.    1425. o
  -1   5  27    3091.    4363.     865. o
   1  -5  27    3022.    2657.     979. o
   1   5  27    3255.    3468.    1398. o
  -1  -5  27    2858.    1175.    1343. <
   3   5  27    1759.     643.    1231. <
  -3  -5  27    2176.     755.    1678. <
   5   5  27    1576.    2545.    1286. <
  -5  -5  27    1247.    2825.    1230. o
   7   5  27    1840.    1930.    1986. <
  -7  -5  27    2035.    -280.    1734. <
  -5   7  27    1841.    1958.     587. o
   5  -7  27    1873.    2769.    1762. <
  -3   7  27     939.    1510.     559. o
   3  -7  27     943.    2153.    1650. <
  -1   7  27    1296.    1230.     783. <
   1   7  27    1278.    2405.    1202. <
  -1  -7  27    1296.    1594.    1818. <
   3   7  27    1018.    2014.    1286. <
  -3  -7  27     864.    1119.    1874. <
   5   7  27    1762.    1454.    1398. <
  -5  -7  27    1952.      56.    1790. <
   0   0  28  104117.   99530.    2703. o
   2   0  28   17278.   18737.    1730. o
  -2   0  28   20881.   18429.     992. o
   4   0  28   50968.   54309.    1649. o
  -4   0  28   51453.   60350.     958. o
   6   0  28   22446.   32104.    1776. o
  -6   0  28   23976.   35460.     905. o
   8   0  28    4548.    7047.    1087. o
  -8   0  28    4685.    8166.    1253. o
  -8   2  28    8053.    8334.    1034. o
   8  -2  28    7699.    8809.    1508. o
  -6   2  28   16853.   22205.     745. o
   6  -2  28   16705.   20079.    1217. o
  -4   2  28   29251.   33615.     734. o
   4  -2  28   27330.   33754.    1759. o
  -2   2  28   72068.   66139.    1160. o
   2  -2  28   72079.   84428.    2175. o
   0   2  28   17292.   15689.    1208. o
   0  -2  28   20450.   14262.    1335. o
   2   2  28   72147.   77297.    1933. o
  -2  -2  28   71999.   58951.    2414. o
   4   2  28   26975.   33894.    1442. o
  -4  -2  28   29606.   32188.    1862. o
   6   2  28   16825.   17199.    1341. o
  -6  -2  28   16733.   18206.    1112. o
   8   2  28    7810.    7998.    1146. o
  -8  -2  28    7941.    9285.    1340. o
  -6   4  28   11346.   12445.     779. o
   6  -4  28   10892.   11969.    1116. o
  -4   4  28   25547.   32216.     803. o
   4  -4  28   25606.   30371.    1343. o
  -2   4  28   27472.   33251.     809. o
   0   4  28   52887.   59427.    1530. o
   0  -4  28   53312.   52771.    1571. o
   2   4  28   27067.   34426.    1754. o
  -2  -4  28   29467.   27518.    1436. o
   4   4  28   26023.   25560.    1708. o
  -4  -4  28   25130.   25225.    1454. o
   6   4  28   11051.   10907.    2070. o
  -6  -4  28   11187.   14542.    1333. o
  -6   6  28    5565.    6488.     809. o
   6  -6  28    5571.    6712.    1789. o
  -4   6  28   10904.   12976.     831. o
   4  -6  28   11344.   13759.    1729. o
  -2   6  28   17589.   22428.     777. o
   0   6  28   22486.   32216.    1285. o
   0  -6  28   23828.   23351.    1568. o
   2   6  28   17726.   19100.    1814. o
  -2  -6  28   17613.   13899.    1854. o
   4   6  28   11085.   10347.    1344. o
  -4  -6  28   11163.   12892.    1759. o
   6   6  28    5608.    1063.    1456. <
  -6  -6  28    5528.    6236.    1286. o
  -2   8  28    7673.    9592.     805. o
   0   8  28    4794.    3887.     812. o
   2   8  28    7801.    8362.    2013. o
  -2  -8  28    7886.    9816.    1423. o
  -7   1  29   35019.   47765.     746. o
   7  -1  29   35947.   32832.    1501. o
  -5   1  29   71992.   87952.     822. o
   5  -1  29   69617.   82079.    1639. o
  -3   1  29  149885.  201296.    3872. o
   3  -1  29  154024.  171932.    2244. o
  -1   1  29  175584.  198891.    1583. o
   1  -1  29  175736.  202387.    3608. o
   1   1  29  176798.  195312.    2180. o
  -1  -1  29  174522.  177721.    2024. o
   3   1  29  152148.  181720.    2156. o
  -3  -1  29  151761.  186083.     797. o
   5   1  29   72025.   84568.    1905. o
  -5  -1  29   69585.   90888.     922. o
   7   1  29   35272.   38956.    1571. o
  -7  -1  29   35694.   55875.    1481. o
  -7   3  29   18736.   26511.     655. o
   7  -3  29   18007.   23575.    1318. o
  -5   3  29   75884.   90525.     485. o
   5  -3  29   77670.  105123.    1864. o
  -3   3  29   81447.   93293.     791. o
   3  -3  29   81626.   82890.    1774. o
  -1   3  29  155352.  167430.    1467. o
   1  -3  29  151229.  176463.    1541. o
   1   3  29  153212.  190418.    2033. o
  -1  -3  29  153370.  139380.    3326. o
   3   3  29   82891.   94020.    1906. o
  -3  -3  29   80182.   91867.    1629. o
   5   3  29   76728.   74081.    1847. o
  -5  -3  29   76826.  104228.    2032. o
   7   3  29   18417.   23016.    1521. o
  -7  -3  29   18326.   28832.    1405. o
  -7   5  29   15923.   18094.     799. o
   7  -5  29   16133.   19604.    1808. o
  -5   5  29   21423.   31098.     780. o
   5  -5  29   21453.   31070.    1462. o
  -3   5  29   78545.   99334.     476. o
   3  -5  29   76730.  111722.    1807. o
  -1   5  29   70675.   94524.     924. o
   1  -5  29   73396.   84876.    1554. o
   1   5  29   73425.   73018.    1878. o
  -1  -5  29   70646.   67313.    1906. o
   3   5  29   77470.   90497.    1980. o
  -3  -5  29   77805.   77437.    1794. o
   5   5  29   21668.   25057.    1439. o
  -5  -5  29   21209.   28944.    1816. o
   7   5  29   16282.   17311.    2319. o
  -7  -5  29   15775.   20862.    2001. o
  -5   7  29   16281.   15605.     787. o
   5  -7  29   16136.   19352.    1528. o
  -3   7  29   17996.   27742.     821. o
   3  -7  29   18745.    -224.     983. <
  -1   7  29   36778.   49527.     873. o
   1   7  29   36007.   47178.    1774. o
  -1  -7  29   36556.   36215.    2239. o
   3   7  29   18465.   24526.    1826. o
  -3  -7  29   18276.   22177.    1862. o
   5   7  29   16451.   15828.    1959. o
  -5  -7  29   15967.   14262.    1459. o
   0   0  30  439022.  455839.    4278. o
   2   0  30  192422.  228786.    2180. o
  -2   0  30  195741.  251103.    4770. o
   4   0  30  158513.  168409.    2517. o
  -4   0  30  155133.  162033.    1268. o
   6   0  30   58203.   71732.    1618. o
  -6   0  30   59050.   81240.     800. o
   8   0  30   12423.   11270.    1373. o
  -8   0  30   11962.   19240.    1175. o
  -8   2  30   17315.   21422.     841. o
   8  -2  30   17182.   17814.    1340. o
  -6   2  30   40385.   51708.     680. o
   6  -2  30   41713.   50730.    1724. o
  -4   2  30  107818.  133759.    2634. o
   4  -2  30  106364.  111247.    1854. o
  -2   2  30  251871.  270120.     661. o
   2  -2  30  252228.  302308.    2491. o
   0   2  30  192022.  223221.    1452. o
   0  -2  30  194929.  189495.    2464. o
   2   2  30  254758.  290562.    1817. o
  -2  -2  30  249341.  237679.    3704. o
   4   2  30  105866.  121510.    1788. o
  -4  -2  30  108315.  118658.    2884. o
   6   2  30   41820.   43822.    1692. o
  -6  -2  30   40278.   52855.    1458. o
   8   2  30   17259.   14346.    1462. o
  -8  -2  30   17238.   24722.    1594. o
  -6   4  30   28198.   34705.     769. o
   6  -4  30   27858.   33671.    1305. o
  -4   4  30   62323.   85239.     605. o
   4  -4  30   62492.   88791.    2002. o
  -2   4  30  105051.  125929.     348. o
   0   4  30  156696.  145365.    2201. o
   0  -4  30  153733.  147910.    2259. o
   2   4  30  104483.  130851.    1882. o
  -2  -4  30  106762.  112561.    2217. o
   4   4  30   63687.   75815.    1503. o
  -4  -4  30   61127.   76710.    1890. o
   6   4  30   27784.   33279.    2075. o
  -6  -4  30   28272.   37334.    1541. o
  -6   6  30   11474.   14626.     882. o
   6  -6  30   11477.   14262.    1475. o
  -4   6  30   27412.   37642.     784. o
   4  -6  30   27690.   33195.    1422. o
  -2   6  30   41326.   39152.     839. o
   2  -6  30   40191.   38676.    1604. o
   0   6  30   56467.   62531.    1473. o
   0  -6  30   57209.   52044.    1885. o
   2   6  30   41449.   52044.    1973. o
  -2  -6  30   40068.   34845.    2011. o
   4   6  30   27327.   36635.    1800. o
  -4  -6  30   27775.   32021.    1459. o
   6   6  30   11497.    8446.    1487. o
  -6  -6  30   11454.   14990.    1754. o
  -2   8  30   16740.   21226.     897. o
   0   8  30   12167.   10459.     900. o
   2   8  30   16828.   23351.    2052. o
  -2  -8  30   16789.   14542.    1516. o
  -7   1  31   12702.    7243.     800. o
   7  -1  31   13308.   10263.    1210. o
  -5   1  31   32472.   33922.     937. o
   5  -1  31   30750.   34733.    1883. o
  -3   1  31  102196.  124419.     945. o
   3  -1  31  103073.  126712.    2358. o
  -1   1  31  154661.  208847.    4116. o
   1  -1  31  154570.  175204.    2975. o
   1   1  31  153927.  188488.    1672. o
  -1  -1  31  155304.  179931.    1424. o
   3   1  31  101637.  126348.    1651. o
  -3  -1  31  103632.  121091.    1248. o
   5   1  31   31878.   28385.    1639. o
  -5  -1  31   31344.   32356.    1055. o
   7   1  31   12754.    8977.    1740. o
  -7  -1  31   13256.   13004.    1008. o
  -7   3  31    4996.    6264.     781. o
   7  -3  31    4637.    7830.    1562. o
  -5   3  31   32836.   41781.     848. o
   5  -3  31   33455.   38676.    1846. o
  -3   3  31   39784.   45388.     910. o
   3  -3  31   39776.   47933.    1820. o
  -1   3  31  101504.  112869.    1403. o
   1  -3  31  100354.  125565.    1610. o
   1   3  31   99864.  122433.    3705. o
  -1  -3  31  101994.   98998.    2548. o
   3   3  31   39717.   41948.    1409. o
  -3  -3  31   39843.   46255.    1401. o
   5   3  31   32382.   39096.    1867. o
  -5  -3  31   33910.   47402.    1848. o
   7   3  31    4799.    4642.    1398. o
  -7  -3  31    4834.    4810.    1203. o
  -5   5  31    4759.    6908.     722. o
   5  -5  31    4748.    8977.    1729. o
  -3   5  31   32970.   39711.     877. o
   3  -5  31   32142.   44549.    1830. o
  -1   5  31   29273.   31909.    1042. o
   1  -5  31   31082.   30762.    1428. o
   1   5  31   30562.   34146.    2054. o
  -1  -5  31   29794.   23407.    1539. o
   3   5  31   31744.   36803.    1649. o
  -3  -5  31   33368.   28441.    1757. o
   5   5  31    4674.    8278.    1646. o
  -5  -5  31    4833.    6264.    1201. o
  -3   7  31    4286.    3747.     700. o
  -1   7  31   12730.   10571.     930. o
   1   7  31   12097.   12556.    1537. o
  -1  -7  31   12684.    8669.    2019. o
   3   7  31    4471.    5509.    1733. o
  -3  -7  31    4459.    4307.    1678. o
   0   0  32   33633.   52212.    1718. o
   2   0  32     807.    -336.    1091. <
  -2   0  32     810.     475.    1007. <
   4   0  32   13187.    8166.    1797. o
  -4   0  32   13537.    8557.     828. o
   6   0  32     622.    1119.    1678. <
  -6   0  32     791.    2293.     866. o
   8   0  32    1009.    1538.    1118. <
  -8   0  32    1098.    1678.     979. <
  -8   2  32     654.    1818.     922. <
   8  -2  32     545.    1035.    1538. <
  -6   2  32    3462.    1258.     673. <
   6  -2  32    3385.    1398.    1148. <
  -4   2  32     168.    1510.     811. <
   4  -2  32      97.     503.    1594. <
  -2   2  32   19453.   23771.     952. o
   2  -2  32   19442.   19156.    1483. o
   0   2  32     817.     419.     951. <
   0  -2  32     820.    1818.    1230. <
   2   2  32   19360.   25001.    1572. o
  -2  -2  32   19535.   18513.    1569. o
   4   2  32     106.     727.    1091. <
  -4  -2  32     159.    1007.    1706. <
   6   2  32    3312.     -56.    1343. <
  -6  -2  32    3535.     979.    1148. <
   8   2  32     529.    1091.    1314. <
  -8  -2  32     670.    -308.    1063. <
  -6   4  32     345.    1007.     699. <
   6  -4  32     272.     364.    1538. <
  -4   4  32    4415.    4419.     699. o
   4  -4  32    4396.    4810.    1650. o
  -2   4  32      86.     979.     867. <
   0   4  32   12376.   10012.    1236. o
   0  -4  32   12682.    6935.    1325. o
   2   4  32      97.    1035.    1594. <
  -2  -4  32     141.    1314.    1174. <
   4   4  32    4264.    -336.    1427. <
  -4  -4  32    4547.    1314.    1512. <
   6   4  32     273.    -783.    1706. <
  -6  -4  32     343.     447.    1175. <
  -4   6  32     264.    1706.     782. o
   4  -6  32     328.    2125.    1733. <
  -2   6  32    3086.    2880.     811. o
   2  -6  32    3134.    2349.    1734. <
   0   6  32     546.    1342.    1146. <
   0  -6  32     694.    4055.    1928. o
   2   6  32    3003.    -615.    1734. <
  -2  -6  32    3217.   -1678.    1230. <
   4   6  32     266.    3887.    1536. o
  -4  -6  32     326.     867.    1566. <
  -2   8  32     496.    1063.     839. <
   0   8  32     886.    1203.     895. <
   2   8  32     478.    -503.    1790. <
  -2  -8  32     605.    -503.    1314. <
  -7   1  33    1623.    2209.     923. o
   7  -1  33    1453.    3943.    1621. o
  -5   1  33    5367.    7271.    1060. o
   5  -1  33    6280.    8613.    1815. o
  -3   1  33    5656.    8138.    1114. o
   3  -1  33    5294.    6684.    1872. o
  -1   1  33   15154.   19324.    1157. o
   1  -1  33   15132.   18961.    2089. o
   1   1  33   14981.   18122.    1162. o
  -1  -1  33   15306.   17115.    1140. o
   3   1  33    5797.    6236.    1566. o
  -3  -1  33    5153.    6935.     976. o
   5   1  33    5615.    6264.    1370. o
  -5  -1  33    6032.    6740.     866. o
   7   1  33    1593.    3160.    1761. <
  -7  -1  33    1483.    2349.    1006. o
  -7   3  33    2409.    5118.     723. o
   7  -3  33    2694.    3104.    1118. o
  -5   3  33    1575.    3188.     669. o
   5  -3  33    1401.    2936.    1174. o
  -3   3  33   11052.   14402.     711. o
   3  -3  33   11008.   13647.    1645. o
  -1   3  33    5049.    7187.    1143. o
   1  -3  33    5500.    6684.    1201. o
   1   3  33    5624.    4894.    1902. o
  -1  -3  33    4925.    4586.    1259. o
   3   3  33   10701.   12724.    1057. o
  -3  -3  33   11360.   11578.    1174. o
   5   3  33    1251.    2713.    1649. <
  -5  -3  33    1725.     -56.    1622. <
   7   3  33    2538.    1762.    1427. <
  -7  -3  33    2565.    3691.    1454. o
  -5   5  33    4337.    5341.     641. o
   5  -5  33    4332.    6628.    1368. o
  -3   5  33    1283.    3496.     613. o
   3  -5  33    1396.    -671.     895. <
  -1   5  33    6234.    6572.    1174. o
   1  -5  33    5257.    6096.    1285. o
   1   5  33    5474.    6041.    1258. o
  -1  -5  33    6016.    6963.    1621. o
   3   5  33    1112.    2601.    1118. o
  -3  -5  33    1566.    1818.    1119. <
   5   5  33    4297.    4586.    1174. o
  -5  -5  33    4373.    5481.    1173. o
  -3   7  33    2743.    3915.     670. o
  -1   7  33    1305.    2629.     950. o
   1   7  33    1465.    2377.    1342. <
  -1  -7  33    1331.    1678.    1790. <
   3   7  33    2565.    2573.    1230. o
  -3  -7  33    2629.    4838.    1172. o
   0   0  34     188.     280.    1622. <
   2   0  34   15200.   16276.    1619. o
  -2   0  34   14291.   19492.    1125. o
   4   0  34    2818.    2041.    1650. <
  -4   0  34    2990.    1203.     784. <
   6   0  34     301.    2908.    1705. <
  -6   0  34     190.    1482.     811. <
   8   0  34    1095.    3496.    1733. o
  -8   0  34     979.    2097.     922. o
  -6   2  34    1932.    3636.     809. o
   6  -2  34    2003.    3552.    1537. o
  -4   2  34    2271.    3328.     698. o
   4  -2  34    2593.    2069.    1231. <
  -2   2  34    1938.     895.     895. <
   2  -2  34    1895.    2461.    1706. <
   0   2  34   15084.   17702.    1221. o
   0  -2  34   14287.   15996.    1337. o
   2   2  34    1592.    1426.    1370. <
  -2  -2  34    2242.     392.    1287. <
   4   2  34    2729.    2153.    1454. <
  -4  -2  34    2135.    4391.    1173. o
   6   2  34    1950.    2936.    1258. o
  -6  -2  34    1985.    1986.    1119. <
  -6   4  34     897.    1342.     811. <
   6  -4  34     886.    2461.    1202. o
  -4   4  34    2138.    3943.     865. o
   4  -4  34    2112.    1650.    1231. <
  -2   4  34    2546.    3356.     866. o
   0   4  34    2473.    2629.    1202. o
   0  -4  34    2623.    2237.    1231. <
   2   4  34    2700.    2377.    1538. <
  -2  -4  34    2144.    1203.    1538. <
   4   4  34    1932.    2041.    1063. <
  -4  -4  34    2318.    -224.    1538. <
   6   4  34     808.     923.    1258. <
  -6  -4  34     976.    1986.    1174. <
  -4   6  34     917.    1482.     671. o
   4  -6  34     905.    2265.    1706. <
  -2   6  34    1809.    3496.     837. o
   2  -6  34    1733.    3384.    1761. <
   0   6  34     296.    1258.    1034. <
   0  -6  34     199.     727.    1342. <
   2   6  34    1749.    2936.    1649. <
  -2  -6  34    1793.     867.    1119. <
   4   6  34     827.    -196.    1091. <
  -4  -6  34     995.    2014.    1118. <
   0   8  34     988.    1230.     923. <
  -7   1  35    2328.    3803.    1173. o
   7  -1  35    2420.    3608.    1202. o
  -5   1  35    3616.    6991.    1114. o
   5  -1  35    3408.    3244.    1342. o
  -3   1  35   11136.   21785.    1042. o
   3  -1  35   11104.   11074.    1454. o
  -1   1  35   11630.   24694.    1142. o
   1  -1  35   11656.   22121.    1874. o
   1   1  35   11839.   18849.    1148. o
  -1  -1  35   11446.   22261.     981. o
   3   1  35   10759.   18513.    1517. o
  -3  -1  35   11481.   20331.    1081. o
   5   1  35    3545.    4055.    1174. o
  -5  -1  35    3478.    4782.     949. o
   7   1  35    2343.    1706.    1874. <
  -7  -1  35    2405.    2629.     923. o
  -7   3  35     583.     895.     839. <
   7  -3  35     514.    2461.    1677. <
  -5   3  35    6006.   10907.     881. o
   5  -3  35    6048.    5677.    1650. o
  -3   3  35    2982.    5453.     751. o
   3  -3  35    2994.    4698.    1201. o
  -1   3  35   11080.   20415.    1252. o
   1  -3  35   11018.   18010.    1406. o
   1   3  35   10687.   19324.    2079. o
  -1  -3  35   11411.   14039.    1392. o
   3   3  35    3077.    4195.    1453. o
  -3  -3  35    2899.    3747.    1034. o
   5   3  35    6008.    7802.    1172. o
  -5  -3  35    6047.    8837.    1198. o
   7   3  35     490.     336.    1314. <
  -7  -3  35     608.    2741.    1817. <
  -5   5  35     399.    1734.     866. <
   5  -5  35     385.    3272.    1929. <
  -3   5  35    6009.    8669.     748. o
  -1   5  35    3296.    6124.    1115. o
   1  -5  35    3516.    5146.    1229. o
   1   5  35    3454.    2377.    1175. o
  -1  -5  35    3358.    2936.    1538. <
   3   5  35    5963.    4894.    1148. o
  -3  -5  35    6008.    6320.    1594. o
   5   5  35     290.     503.    1566. <
  -5  -5  35     494.     168.    1594. <
  -3   7  35     490.    2209.     838. o
  -1   7  35    2366.    1510.     895. <
   1   7  35    2278.    3999.    1817. o
  -1  -7  35    2353.    2992.    1258. o
   3   7  35     462.     -56.    1147. <
  -3  -7  35     572.    1091.    1594. <
   0   0  36   88528.  131662.    1679. o
   2   0  36   84607.   74948.    1846. o
  -2   0  36   83781.   87896.    1417. o
   4   0  36   30431.   38481.    1975. o
  -4   0  36   27177.   40662.     900. o
   6   0  36   25999.   25477.    1959. o
  -6   0  36   25618.   26372.    1030. o
  -6   2  36    6315.   12193.     905. o
   6  -2  36    7290.   11102.    1728. o
  -4   2  36   41896.   41920.     923. o
   4  -2  36   42481.   42228.    1763. o
  -2   2  36   50584.   73354.     964. o
   2  -2  36   50843.   69466.    2152. o
   0   2  36   83570.   84848.    1632. o
   0  -2  36   82846.   76234.    1973. o
   2   2  36   52672.   52659.    1398. o
  -2  -2  36   48755.   65523.    1785. o
   4   2  36   42116.   37893.    1430. o
  -4  -2  36   42262.   46535.    1874. o
   6   2  36    7134.    7830.    1229. o
  -6  -2  36    6471.   10459.    1419. o
  -6   4  36   12632.   12640.     755. o
   6  -4  36   12728.   10907.    1765. o
  -4   4  36   11229.   20611.     874. o
   4  -4  36   11271.   21170.    1905. o
  -2   4  36   41727.   46367.    1039. o
   2  -4  36   41118.   48828.    2109. o
   0   4  36   29837.   38285.    1572. o
   0  -4  36   26985.   33978.    1413. o
   2   4  36   41310.   42368.    1727. o
  -2  -4  36   41535.   39152.    1776. o
   4   4  36   11568.   15828.    1612. o
  -4  -4  36   10932.   14906.    1613. o
   6   4  36   12576.   11913.    1316. o
  -6  -4  36   12784.   13451.    1285. o
  -4   6  36   12607.   13591.     835. o
   4  -6  36   12482.   13116.    2012. o
  -2   6  36    7206.   11270.     854. o
   2  -6  36    6310.   11046.    1895. o
   0   6  36   25248.   25868.    1535. o
   0  -6  36   24914.   17870.    1453. o
   2   6  36    7028.   12025.    1613. o
  -2  -6  36    6487.    7439.    1509. o
   4   6  36   12433.   13340.    1648. o
  -4  -6  36   12656.   11885.    1624. o
  -7   1  37   12242.   17087.    1299. o
   7  -1  37   12670.   11018.    1402. o
  -5   1  37   26425.   37082.    1180. o
   5  -1  37   26063.   29867.    1632. o
  -3   1  37   62172.   79898.    1455. o
   3  -1  37   62438.   74221.    2224. o
  -1   1  37   78683.   94412.    1272. o
   1  -1  37   78810.   77856.    2385. o
   1   1  37   79711.   81548.    1654. o
  -1  -1  37   77782.   74277.    1556. o
   3   1  37   61614.   40159.    1580. o
  -3  -1  37   62996.   72990.    1196. o
   5   1  37   26672.   25812.    1347. o
  -5  -1  37   25817.   32664.    1185. o
   7   1  37   12383.   12417.    2041. o
  -7  -1  37   12529.   17450.    1270. o
  -5   3  37   26998.   36020.     832. o
   5  -3  37   27109.   31461.    1911. o
  -3   3  37   31566.   32272.     973. o
   3  -3  37   31661.   37082.    2101. o
  -1   3  37   62637.   82275.    1422. o
   1  -3  37   62185.   68823.    1723. o
   1   3  37   61697.   70417.    2454. o
  -1  -3  37   63126.   58420.    1941. o
   3   3  37   32333.   36411.    1598. o
  -3  -3  37   30894.   32916.    1329. o
   5   3  37   27304.   29028.    1726. o
  -5  -3  37   26802.   34677.    1378. o
  -5   5  37    7779.   13703.     988. o
   5  -5  37    7759.   12305.    1417. o
  -3   5  37   27242.   32328.     965. o
  -1   5  37   26029.   31014.    1170. o
   1  -5  37   26508.   26344.    1427. o
   1   5  37   26724.   33335.    1844. o
  -1  -5  37   25812.   21478.    1362. o
   3   5  37   27465.   28944.    1334. o
  -3  -5  37   26972.   25365.    1685. o
   5   5  37    7619.    9508.    1199. o
  -5  -5  37    7919.   11690.    1644. o
  -1   7  37   12848.   12724.     951. o
   1   7  37   12520.   20275.    1939. o
  -1  -7  37   12724.    9592.    1321. o
   0   0  38   28931.   23184.    1728. o
   2   0  38    3609.    6880.    1451. o
  -2   0  38    5188.    3524.    1009. o
   4   0  38   16614.   14906.    1850. o
  -4   0  38   16248.   18653.     939. o
   6   0  38    7248.   13256.    2005. o
  -6   0  38    8195.   13731.     989. o
  -6   2  38    7058.    8474.     779. o
   6  -2  38    7103.    6264.    1288. o
  -4   2  38    7798.   14514.     927. o
   4  -2  38    6923.   11466.    1811. o
  -2   2  38   23324.   13200.     944. o
   2  -2  38   23351.    5733.    1793. o
   0   2  38    3564.    3775.     979. o
   0  -2  38    4948.    5313.    1286. o
   2   2  38   23542.   16360.    1150. o
  -2  -2  38   23132.   20499.    1409. o
   4   2  38    6414.   14402.    1465. o
  -4  -2  38    8308.   10124.    1199. o
   6   2  38    7139.    7970.    1201. o
  -6  -2  38    7022.    7998.    1565. o
  -6   4  38    4455.    5817.     921. o
   6  -4  38    4255.    6404.    1732. o
  -4   4  38   11093.   14011.     883. o
   4  -4  38   11104.   12864.    1394. o
  -2   4  38    7040.   10711.     941. o
   2  -4  38    7672.   13703.    1807. o
   0   4  38   17394.   19744.    1418. o
   0  -4  38   17074.   14290.    1295. o
   2   4  38    6458.   11410.    1050. o
  -2  -4  38    8253.   11802.    1053. o
   4   4  38   11182.   10767.    1092. o
  -4  -4  38   11016.   12109.    1564. o
   6   4  38    4237.    2992.    1595. <
  -6  -4  38    4474.    5985.    1229. o
  -4   6  38    4351.    7187.     946. o
   4  -6  38    4521.    4950.    1454. o
  -2   6  38    7463.    9844.     888. o
   2  -6  38    7434.    8474.    1845. o
   0   6  38    7485.   12584.    1585. o
   0  -6  38    8315.    9928.    1311. o
   2   6  38    7504.    7215.    1594. o
  -2  -6  38    7393.    5593.    1121. o
   4   6  38    4330.    4307.    1119. o
  -4  -6  38    4543.    4502.    1566. o
  -7   1  39     790.    1370.     755. <
   7  -1  39     935.    2181.    1342. <
  -5   1  39    1700.     643.     839. <
   5  -1  39    1627.     867.    1370. <
  -3   1  39    1606.    2209.     867. o
   3  -1  39    1929.    2852.    1594. <
  -1   1  39    6436.    7970.     920. o
   1  -1  39    6469.    6516.    1202. o
   1   1  39    6697.    8166.    1172. o
  -1  -1  39    6208.    6880.     950. o
   3   1  39    1662.    2405.     950. o
  -3  -1  39    1872.    1622.     783. o
   5   1  39    1846.    1902.    1119. <
  -5  -1  39    1482.    1091.     923. <
   7   1  39     834.    2769.    1761. <
  -7  -1  39     892.     531.     895. <
  -5   3  39     495.    1622.     950. <
   5  -3  39     597.    2293.    1370. <
  -3   3  39    2945.    2321.     812. o
   3  -3  39    2987.    1482.    1762. <
  -1   3  39    1926.    1314.    1203. <
   1  -3  39    1572.    1091.    1147. <
   1   3  39    1622.    1342.    1594. <
  -1  -3  39    1876.     811.    1343. <
   3   3  39    3291.    2349.     979. o
  -3  -3  39    2641.    1594.    1371. <
   5   3  39     512.    1398.    1006. <
  -5  -3  39     580.    1510.    1538. <
  -5   5  39     782.    1286.     727. <
   5  -5  39     799.    1203.    2125. <
  -3   5  39     663.    1370.     923. <
  -1   5  39    1677.    1706.    1091. <
   1  -5  39    1800.     615.    1035. <
   1   5  39    1927.    1370.    1119. <
  -1  -5  39    1550.   -1510.    1510. <
   3   5  39     566.    -168.    1035. <
  -3  -5  39     648.    1818.    1034. <
   5   5  39     915.     280.    1482. <
  -5  -5  39     665.     951.    1566. <
  -1   7  39    1043.    1342.     923. <
   1   7  39     927.     755.    1231. <
  -1  -7  39    1004.     643.    1063. <
   0   0  40     174.    1203.    1454. <
   2   0  40   36675.   21813.    1262. o
  -2   0  40   36177.   31853.    1071. o
   4   0  40    2876.    4754.    1173. o
  -4   0  40    3533.    4950.     893. o
   6   0  40    7267.    5146.    1792. o
  -6   0  40    6885.    7019.    1034. o
  -6   2  40    2126.    4111.     865. o
   6  -2  40    1992.    2936.    1342. o
  -4   2  40   16404.   16779.    1005. o
   4  -2  40   16697.   17562.    1984. o
  -2   2  40    2081.    2293.     839. o
   2  -2  40    2005.     -28.    1454. <
   0   2  40   36792.   32160.    1182. o
   0  -2  40   36355.   26539.    1426. o
   2   2  40    1465.    1230.     923. <
  -2  -2  40    2622.    2545.    1147. o
   4   2  40   16928.   15129.    1098. o
  -4  -2  40   16172.   16528.    1621. o
   6   2  40    1949.     643.    1147. <
  -6  -2  40    2169.    6124.    1731. o
  -4   4  40    1889.    3831.     781. o
   4  -4  40    1859.    5258.    1984. o
  -2   4  40   16700.   14654.    1015. o
   2  -4  40   16506.   16779.    1985. o
   0   4  40    2538.    6712.    1338. o
   0  -4  40    3113.    3188.    1147. o
   2   4  40   16965.   12808.    1077. o
  -2  -4  40   16241.   13787.    1072. o
   4   4  40    1641.    3272.    1006. o
  -4  -4  40    2107.    4251.    1481. o
  -2   6  40    1809.    4558.     808. o
   2  -6  40    1915.    3915.    1957. <
   0   6  40    7210.    6013.    1791. o
   0  -6  40    6875.    5761.    1595. o
   2   6  40    1760.    1230.    1566. <
  -2  -6  40    1965.    3048.    1482. o
  -5   1  41    6279.    7467.     808. o
   5  -1  41    6405.    5230.    1260. o
  -3   1  41    5025.    4502.    1035. o
   3  -1  41    4763.    3104.    1567. <
  -1   1  41    5806.    1958.     982. <
   1  -1  41    5785.     923.    1568. <
   1   1  41    5631.    3188.    1037. o
  -1  -1  41    5960.    1035.    1010. <
   3   1  41    4949.    2153.    1456. <
  -3  -1  41    4839.    2657.     981. o
   5   1  41    6304.    5621.    1595. o
  -5  -1  41    6380.    8250.    1115. o
  -5   3  41    2597.    3468.     838. o
   5  -3  41    2493.    4027.    1285. o
  -3   3  41    8352.   10459.    1001. o
   3  -3  41    8353.    9564.    1956. o
  -1   3  41    4762.    2880.    1204. o
   1  -3  41    5041.    4083.    1371. o
   1   3  41    4975.    2545.    1400. <
  -1  -3  41    4829.    2936.    1455. o
   3   3  41    8359.    7495.    1009. o
  -3  -3  41    8345.    8893.    1453. o
   5   3  41    2564.    2629.    1063. o
  -5  -3  41    2526.    4726.    1509. o
  -3   5  41    2423.    4363.     949. o
  -1   5  41    6463.   10040.    1420. o
   1  -5  41    6326.    7103.    1145. o
   1   5  41    6348.    6684.    1174. o
  -1  -5  41    6441.    4978.    1121. o
   3   5  41    2505.    2209.    1063. o
  -3  -5  41    2452.    2601.    1035. o
   0   0  42     106.    5845.    1478. o
   2   0  42    1360.    2265.    1286. <
  -2   0  42    1488.     643.     867. <
   4   0  42    1346.    1622.    1063. <
  -4   0  42    1115.    1035.     923. <
   6   0  42    1351.    3132.    1649. <
  -6   0  42    1500.    1258.    1063. <
  -6   2  42     686.     392.     811. <
   6  -2  42     795.    2265.    1370. <
  -4   2  42    1463.     671.     923. <
   4  -2  42    1360.    2377.    1762. <
  -2   2  42     729.    1342.     755. <
   0   2  42    1333.     643.     979. <
   0  -2  42    1444.     559.    1119. <
   2   2  42     903.    1314.    1007. <
  -2  -2  42     577.    2181.    1146. <
   4   2  42    1310.    1258.    1342. <
  -4  -2  42    1514.    2097.    1034. o
   6   2  42     820.    2461.    1566. <
  -6  -2  42     660.    1203.    1230. <
  -4   4  42     573.    1566.     867. <
   4  -4  42     586.     587.    2014. <
  -2   4  42    1307.    1007.     783. <
   2  -4  42    1383.    -867.    2041. <
   0   4  42    1200.    1930.    1118. <
   0  -4  42     998.    1566.    1286. <
   2   4  42    1249.     -28.     979. <
  -2  -4  42    1441.     951.     979. <
   4   4  42     683.    -531.    1342. <
  -4  -4  42     476.    -140.    1398. <
  -2   6  42     719.    1147.     895. <
   2  -6  42     629.    1203.    2013. <
   0   6  42    1248.   -1314.    1230. <
   0  -6  42    1379.   -1230.    1538. <
   2   6  42     748.    -308.    1035. <
  -2  -6  42     601.     615.    1063. <
  -5   1  43    8895.   10319.     863. o
   5  -1  43    8751.    7663.    1316. o
  -3   1  43   17143.   21645.    1353. o
   3  -1  43   17283.   12277.    1246. o
  -1   1  43   18956.   16444.     991. o
   1  -1  43   18944.   12808.    1831. o
   1   1  43   18865.   14290.    1108. o
  -1  -1  43   19035.   15717.    1077. o
   3   1  43   17328.   10990.    1138. o
  -3  -1  43   17098.   16052.     983. o
   5   1  43    8737.    5705.    1179. o
  -5  -1  43    8909.    8362.    1176. o
  -5   3  43    9606.   10403.     949. o
   5  -3  43    9716.    8781.    1568. o
  -3   3  43   10108.    9732.     868. o
   3  -3  43   10086.    9788.    2014. o
  -1   3  43   17421.   20247.    1219. o
   1  -3  43   17310.   15437.    1404. o
   1   3  43   17472.   13675.    1132. o
  -1  -3  43   17259.   16416.    1652. o
   3   3  43    9932.    8557.    1038. o
  -3  -3  43   10262.   10543.    1510. o
   5   3  43    9800.    6572.    1542. o
  -5  -3  43    9522.   11829.    1225. o
  -3   5  43    9805.   12025.     944. o
   3  -5  43    9731.    7802.    1625. o
  -1   5  43    8903.   12864.    1502. o
   1  -5  43    9026.    8921.    2042. o
   1   5  43    8886.   11214.    1590. o
  -1  -5  43    9042.    7914.    1121. o
   3   5  43    9901.   11046.    1508. o
  -3  -5  43    9635.    8502.    1484. o
   0   0  44   35377.   46031.    1953. o
   2   0  44   56433.   40606.    1790. o
  -2   0  44   57454.   37893.    1215. o
   4   0  44   18646.   26735.    1704. o
  -4   0  44   18596.   30063.    1074. o
   6   0  44   22914.   16276.    1504. o
  -6   0  44   23313.   22988.    1232. o
  -4   2  44   38732.   35432.    1174. o
   4  -2  44   38097.   33671.    2034. o
  -2   2  44   25334.   29252.    1064. o
   0   2  44   56738.   40942.    1455. o
   0  -2  44   57633.   33167.    1555. o
   2   2  44   25602.   39124.    1484. o
  -2  -2  44   25100.   33810.    1404. o
   4   2  44   38215.   21673.    1298. o
  -4  -2  44   38614.   32076.    1386. o
  -4   4  44    9923.   15101.     960. o
   4  -4  44    9963.   18653.    2277. o
  -2   4  44   38290.   39907.    1047. o
   2  -4  44   38877.   36831.    2553. o
   0   4  44   19111.   27938.    1557. o
   0  -4  44   19068.   24778.    1600. o
   2   4  44   38425.   24162.    1291. o
  -2  -4  44   38743.   30147.    1695. o
   4   4  44   10243.   14542.    1500. o
  -4  -4  44    9642.   15605.    1609. o
   0   6  44   23064.   24889.    1839. o
   0  -6  44   23414.   13675.    1402. o
  -5   1  45   15302.   17646.    1053. o
   5  -1  45   14746.   17730.    1867. o
  -3   1  45   32804.   43179.    1377. o
   3  -1  45   33244.   43458.    1786. o
  -1   1  45   43322.   35348.    1162. o
   1  -1  45   43318.   47486.    2101. o
   1   1  45   43291.   35740.    1372. o
  -1  -1  45   43349.   30454.    1119. o
   3   1  45   32778.   33251.    1283. o
  -3  -1  45   33270.   33559.    1144. o
   5   1  45   15124.   18541.    1556. o
  -5  -1  45   14925.   16919.    1252. o
  -5   3  45   14237.   16332.    1054. o
   5  -3  45   14473.   11298.    1545. o
  -3   3  45   19211.   23100.     927. o
   3  -3  45   19210.   14570.    1940. o
  -1   3  45   33228.   45947.    1383. o
   1  -3  45   32719.   38648.    1672. o
   1   3  45   32696.   38984.    1612. o
  -1  -3  45   33251.   21729.    1400. o
   3   3  45   19208.   23156.    1183. o
  -3  -3  45   19213.   20387.    1225. o
   5   3  45   14144.   15828.    1562. o
  -5  -3  45   14566.   17171.    1278. o
  -3   5  45   14502.   16668.     969. o
   3  -5  45   14208.   17227.    2400. o
  -1   5  45   14661.   15940.    1479. o
   1  -5  45   15248.   15157.    2154. o
   1   5  45   15092.   19772.    1269. o
  -1  -5  45   14818.   11774.    1601. o
   3   5  45   14126.   10207.    1574. o
  -3  -5  45   14583.   13731.    1596. o
   0   0  46   53064.   47905.    2075. o
   2   0  46    1999.   13591.    1433. o
  -2   0  46    2089.   14290.     944. o
   4   0  46   21765.    8921.    1131. o
  -4   0  46   21656.   11690.    1046. o
  -4   2  46    1169.    3999.     892. o
   4  -2  46    1144.    5649.    1198. o
  -2   2  46   32531.   19268.     984. o
   0   2  46    1964.   12584.    1010. o
   0  -2  46    2042.   14430.    1203. o
   2   2  46   32679.   31210.    1546. o
  -2  -2  46   32401.   24078.    1413. o
   4   2  46    1110.    5090.    1031. o
  -4  -2  46    1203.    6292.    1506. o
  -4   4  46    8493.    5761.     817. o
   4  -4  46    8495.    7187.    2127. o
  -2   4  46    1083.    6516.    1000. o
   2  -4  46    1095.    6096.    2011. o
   0   4  46   21199.   13731.    1449. o
   0  -4  46   21103.   12249.    1396. o
   2   4  46    1044.    5873.    1422. o
  -2  -4  46    1134.    4474.    1424. o
   4   4  46    8508.    4670.    1068. o
  -4  -4  46    8480.    5090.    1430. o
  -5   1  47    1110.     447.     811. <
   5  -1  47    1087.    2629.    1621. <
  -3   1  47     987.    2964.     866. o
   3  -1  47     756.     671.    1119. <
  -1   1  47    1410.    1958.     671. o
   1  -1  47    1388.    4866.    1564. o
   1   1  47    1232.    4810.    1087. o
  -1  -1  47    1565.    3971.    1005. o
   3   1  47     825.    2181.    1258. <
  -3  -1  47     918.    2349.    1006. o
   5   1  47     996.    2153.    1034. o
  -5  -1  47    1200.     -56.    1147. <
  -3   3  47    1193.     615.     671. <
   3  -3  47    1175.    -839.    1510. <
  -1   3  47     735.    2852.    1118. o
   1  -3  47     956.    1762.    1118. <
   1   3  47     814.    2797.    1034. o
  -1  -3  47     877.    1370.    1174. <
   3   3  47    1050.     615.     923. <
  -3  -3  47    1317.     895.    1007. <
  -1   5  47    1118.     615.    1175. <
   1  -5  47    1114.      28.    1650. <
   1   5  47    1014.    -559.    1091. <
  -1  -5  47    1218.     615.    1035. <
   0   0  48      60.    1091.    1454. <
   2   0  48    7456.    4978.    1317. o
  -2   0  48    7187.    3104.     873. o
   4   0  48     451.       0.    1482. <
  -4   0  48     661.     615.     923. <
  -4   2  48    2860.    2545.    1175. o
   4  -2  48    3005.    2852.    1678. <
  -2   2  48     457.     280.     811. <
   0   2  48    7410.    3188.    1179. o
   0  -2  48    7175.    3272.    1123. o
   2   2  48     266.      56.    1258. <
  -2  -2  48     624.    1091.    1091. <
   4   2  48    3013.    3580.    1314. o
  -4  -2  48    2851.    1258.    1035. <
  -2   4  48    2982.    1370.     924. <
   2  -4  48    2857.    1762.    1902. <
   0   4  48     398.     336.    1119. <
   0  -4  48     582.     280.    1231. <
   2   4  48    2991.     503.    1427. <
  -2  -4  48    2847.    -643.    1455. <
  -3   1  49      76.     755.     895. <
   3  -1  49      83.    2153.    1482. <
  -1   1  49     374.     308.     783. <
   1  -1  49     375.    2405.    1565. <
   1   1  49     386.    1007.     895. <
  -1  -1  49     364.     -28.     811. <
   3   1  49      82.     839.    1398. <
  -3  -1  49      76.     392.     951. <
  -3   3  49     121.     531.     979. <
  -1   3  49      74.     755.    1035. <
   1  -3  49      68.     643.    1007. <
   1   3  49      74.    -671.    1286. <
  -1  -3  49      68.    1007.    1146. <
   3   3  49     136.    -364.     895. <
  -3  -3  49     109.     811.    1342. <
   0   0  50     246.    8921.    1445. o
   2   0  50   15067.    5397.    1414. o
  -2   0  50   15220.    5453.     920. o
   4   0  50     218.    3048.    1453. o
  -4   0  50     119.    3663.    1004. o
  -2   2  50     216.    5565.     804. o
   0   2  50   15030.    4950.    1056. o
   0  -2  50   15164.    3384.    1112. o
   2   2  50     288.    3915.    1368. o
  -2  -2  50     152.    4139.    1144. o
   0   4  50     215.    1063.    1370. <
   0  -4  50     129.    3300.    1397. o
  -3   1  51   13659.   17199.     963. o
   3  -1  51   13701.    6544.    1189. o
  -1   1  51   19355.   23855.    1747. o
   1  -1  51   19370.   23743.    1916. o
   1   1  51   19476.   14766.    1164. o
  -1  -1  51   19250.   22708.    1186. o
   3   1  51   13812.   13843.    1426. o
  -3  -1  51   13548.   12696.    1093. o
  -1   3  51   13636.   16444.    1362. o
   1  -3  51   13628.   13032.    1344. o
   1   3  51   13762.   13284.    1176. o
  -1  -3  51   13502.   12612.    1456. o
   0   0  52   19239.   18849.    1456. o
   2   0  52   14988.   15269.    1509. o
  -2   0  52   15008.   14458.     953. o
  -2   2  52   12947.   14486.     888. o
   0   2  52   14896.   13004.    1069. o
   0  -2  52   14913.   13675.    1234. o
   2   2  52   13115.   11606.    1067. o
  -2  -2  52   12800.   10180.    1209. o
  -1   1  53    1741.    1958.    1510. <
   1  -1  53    1755.    2041.    1566. <
   1   1  53    1851.    1986.    1063. <
  -1  -1  53    1645.     783.     895. <
   0   0  54    1128.     140.    1370. <
   2   0  54    8329.    1958.    1375. <
  -2   0  54    8203.    2153.     792. o
   0   2  54    8278.    4642.    1040. o
   0  -2  54    8168.    2405.    1097. o
  -1   1  55    3418.    4335.    1482. o
   1  -1  55    3414.    2629.     924. o
   1   1  55    3390.    3076.    1007. o
  -1  -1  55    3442.    1986.    1008. <

loop_
 _twin_refln_datum_id
 _twin_refln_individual_id
 _twin_refln_index_h
 _twin_refln_index_k
 _twin_refln_index_l
 _twin_refln_F_squared_calc
 _twin_refln_F_squared_meas
 _twin_refln_F_squared_sigma
 _twin_refln_include_status
         1    2   0   0   2  570789.  540110.    5456. o
         1    1   2   0   0  570789.  540110.    5456. o
         2    2   0   0  -2  574176.  584233.    4802. o
         2    1  -2   0   0  574176.  584233.    4802. o
         3    2   0   0   4 1383610. 1399710.    4018. o
         3    1   4   0   0 1383610. 1399710.    4018. o
         4    2   0   0  -4 1401190. 1437040.    2547. o
         4    1  -4   0   0 1401190. 1437040.    2547. o
         5    2   0   0   6   99130.   90511.    1533. o
         5    1   6   0   0   99130.   90511.    1533. o
         6    2   0   0  -6   92406.   91870.    1580. o
         6    1  -6   0   0   92406.   91870.    1580. o
         7    2   0   0   8  125871.  128187.    1741. o
         7    1   8   0   0  125871.  128187.    1741. o
         8    2   0   0  -8  125535.  131864.    2026. o
         8    1  -8   0   0  125535.  131864.    2026. o
         9    2   0   0  10   12672.   13775.    1276. o
         9    1  10   0   0   12672.   13775.    1276. o
        10    2   0   0 -10   13453.   11244.    1683. o
        10    1 -10   0   0   13453.   11244.    1683. o
        11    2   0  -2   2   10581.    6634.     941. o
        11    1   2   2   0   10581.    6634.     941. o
        12    2   0  -2  -2    6981.    6848.    1066. o
        12    1  -2   2   0    6981.    6848.    1066. o
        13    2   0  -2   4   39115.   31068.     958. o
        13    1   4   2   0   39115.   31068.     958. o
        14    2   0  -2  -4   43070.   33652.    1174. o
        14    1  -4   2   0   43070.   33652.    1174. o
        15    2   0  -2   6   39236.   43750.     905. o
        15    1   6   2   0   39236.   43750.     905. o
        16    2   0  -2  -6   35647.   44230.     795. o
        16    1  -6   2   0   35647.   44230.     795. o
        17    2   0  -2   8    1723.    2371.     799. o
        17    1   8   2   0    1723.    2371.     799. o
        18    2   0  -2  -8    2150.    1625.     720. o
        18    1  -8   2   0    2150.    1625.     720. o
        19    2   0  -2  10    3666.    2611.     747. o
        19    1  10   2   0    3666.    2611.     747. o
        20    2   0  -2 -10    3373.    1892.    1093. <
        20    1 -10   2   0    3373.    1892.    1093. <
        21    2   0  -4   2    1829.    1332.     773. <
        21    1   2   4   0    1829.    1332.     773. <
        22    2   0  -4  -2    3074.    1279.     827. <
        22    1  -2   4   0    3074.    1279.     827. <
        23    2   0  -4   4  258873.  242731.    2226. o
        23    1   4   4   0  258873.  242731.    2226. o
        24    2   0  -4  -4  252673.  253469.    1890. o
        24    1  -4   4   0  252673.  253469.    1890. o
        25    2   0  -4   6    2658.    4583.     690. o
        25    1   6   4   0    2658.    4583.     690. o
        26    2   0  -4  -6    1597.    3597.     637. o
        26    1  -6   4   0    1597.    3597.     637. o
        27    2   0  -4   8   75560.   77535.     972. o
        27    1   8   4   0   75560.   77535.     972. o
        28    2   0  -4  -8   76646.   80946.    1120. o
        28    1  -8   4   0   76646.   80946.    1120. o
        29    2   0  -4  10    1666.    1519.     640. o
        29    1  10   4   0    1666.    1519.     640. o
        30    2   0  -4 -10     996.    2664.    1092. o
        30    1 -10   4   0     996.    2664.    1092. o
        31    2   0  -6   2    9809.    1226.     758. <
        31    1   2   6   0    9809.    1226.     758. <
        32    2   0  -6  -2    3238.    1732.     694. o
        32    1  -2   6   0    3238.    1732.     694. o
        33    2   0  -6   4  240764.  250165.    1292. o
        33    1   4   6   0  240764.  250165.    1292. o
        34    2   0  -6  -4  251937.  255547.    1815. o
        34    1  -4   6   0  251937.  255547.    1815. o
        35    2   0  -6   6   19381.   19504.     745. o
        35    1   6   6   0   19381.   19504.     745. o
        36    2   0  -6  -6   17836.   18571.     848. o
        36    1  -6   6   0   17836.   18571.     848. o
        37    2   0  -6   8   17152.   15800.     807. o
        37    1   8   6   0   17152.   15800.     807. o
        38    2   0  -6  -8   17350.   17079.    1067. o
        38    1  -8   6   0   17350.   17079.    1067. o
        39    2   0  -6  10    4376.    3517.     774. o
        39    1  10   6   0    4376.    3517.     774. o
        40    2   0  -6 -10    4728.    3331.    1067. o
        40    1 -10   6   0    4728.    3331.    1067. o
        41    2   0  -8   0  568321.  400014.   10385. o
        41    1   0   8   0  568321.  400014.   10385. o
        42    2   0  -8   2   49728.   45642.    1215. o
        42    1   2   8   0   49728.   45642.    1215. o
        43    2   0  -8  -2   35764.   46681.    1090. o
        43    1  -2   8   0   35764.   46681.    1090. o
        44    2   0  -8   4  395147.  412243.    1033. o
        44    1   4   8   0  395147.  412243.    1033. o
        45    2   0  -8  -4  414394.  416000.    2240. o
        45    1  -4   8   0  414394.  416000.    2240. o
        46    2   0  -8   6   52972.   57872.     762. o
        46    1   6   8   0   52972.   57872.     762. o
        47    2   0  -8  -6   50175.   63734.    1036. o
        47    1  -6   8   0   50175.   63734.    1036. o
        48    2   0  -8   8   69880.   71381.     984. o
        48    1   8   8   0   69880.   71381.     984. o
        49    2   0  -8  -8   71801.   71674.    1121. o
        49    1  -8   8   0   71801.   71674.    1121. o
        50    2   0  -8  10   12154.    9912.     676. o
        50    1  10   8   0   12154.    9912.     676. o
        51    2   0  -8 -10   12380.   10738.    1177. o
        51    1 -10   8   0   12380.   10738.    1177. o
        52    2   0 -10   0    3147.    2425.    2851. <
        52    1   0  10   0    3147.    2425.    2851. <
        53    2   0 -10   2    6840.    5702.     988. o
        53    1   2  10   0    6840.    5702.     988. o
        54    2   0 -10  -2    7483.    5462.     856. o
        54    1  -2  10   0    7483.    5462.     856. o
        55    2   0 -10   4   70567.   61043.    1186. o
        55    1   4  10   0   70567.   61043.    1186. o
        56    2   0 -10  -4   69749.   64266.    1153. o
        56    1  -4  10   0   69749.   64266.    1153. o
        57    2   0 -10   6    2708.    4396.     690. o
        57    1   6  10   0    2708.    4396.     690. o
        58    2   0 -10  -6    2072.    3863.     931. o
        58    1  -6  10   0    2072.    3863.     931. o
        59    2   0 -10   8   39558.   41725.     852. o
        59    1   8  10   0   39558.   41725.     852. o
        60    2   0 -10  -8   40419.   45509.    1093. o
        60    1  -8  10   0   40419.   45509.    1093. o
        61    2   0 -12   0   13718.   17106.    2793. o
        61    1   0  12   0   13718.   17106.    2793. o
        62    2   0 -12   2   22122.   16813.     935. o
        62    1   2  12   0   22122.   16813.     935. o
        63    2   0 -12  -2   25667.   20356.    1147. o
        63    1  -2  12   0   25667.   20356.    1147. o
        64    2   0 -12   4   36795.   30268.    1016. o
        64    1   4  12   0   36795.   30268.    1016. o
        65    2   0 -12  -4   36716.   29336.    1047. o
        65    1  -4  12   0   36716.   29336.    1047. o
        66    2   0 -12   6    2609.    4396.     824. o
        66    1   6  12   0    2609.    4396.     824. o
        67    2   0 -12  -6    1824.    3837.     770. o
        67    1  -6  12   0    1824.    3837.     770. o
        68    2   0 -12   8   17132.   17665.     903. o
        68    1   8  12   0   17132.   17665.     903. o
        69    2   0 -12  -8   18172.   14894.     791. o
        69    1  -8  12   0   18172.   14894.     791. o
        70    2   0 -14   0 1588470. 1528110.   13322. o
        70    1   0  14   0 1588470. 1528110.   13322. o
        71    2   0 -14   2  170843.  138258.    3068. o
        71    1   2  14   0  170843.  138258.    3068. o
        72    2   0 -14  -2  155133.  135674.    2094. o
        72    1  -2  14   0  155133.  135674.    2094. o
        73    2   0 -14   4  537102.  555111.     931. o
        73    1   4  14   0  537102.  555111.     931. o
        74    2   0 -14  -4  541593.  551301.    1925. o
        74    1  -4  14   0  541593.  551301.    1925. o
        75    2   0 -14   6   90374.   88806.    1230. o
        75    1   6  14   0   90374.   88806.    1230. o
        76    2   0 -14  -6   84897.   93282.    1201. o
        76    1  -6  14   0   84897.   93282.    1201. o
        77    2   0 -14   8   61628.   65838.     910. o
        77    1   8  14   0   61628.   65838.     910. o
        78    2   0 -14  -8   62019.   69142.    1059. o
        78    1  -8  14   0   62019.   69142.    1059. o
        79    2   0 -16   0 1183870. 1142250.   10542. o
        79    1   0  16   0 1183870. 1142250.   10542. o
        80    2   0 -16   2  324736.  283817.    4088. o
        80    1   2  16   0  324736.  283817.    4088. o
        81    2   0 -16  -2  314746.  290531.    3058. o
        81    1  -2  16   0  314746.  290531.    3058. o
        82    2   0 -16   4  278834.  248673.    2642. o
        82    1   4  16   0  278834.  248673.    2642. o
        83    2   0 -16  -4  280312.  264979.    2364. o
        83    1  -4  16   0  280312.  264979.    2364. o
        84    2   0 -16   6   81375.   77162.    1121. o
        84    1   6  16   0   81375.   77162.    1121. o
        85    2   0 -16  -6   76051.   83078.    1184. o
        85    1  -6  16   0   76051.   83078.    1184. o
        86    2   0 -16   8   20175.   16999.     818. o
        86    1   8  16   0   20175.   16999.     818. o
        87    2   0 -16  -8   20544.   16306.     824. o
        87    1  -8  16   0   20544.   16306.     824. o
        88    2   0 -18   0   60797.   52436.    2815. o
        88    1   0  18   0   60797.   52436.    2815. o
        89    2   0 -18   2   33015.   29975.    1509. o
        89    1   2  18   0   33015.   29975.    1509. o
        90    2   0 -18  -2   34619.   28616.    1136. o
        90    1  -2  18   0   34619.   28616.    1136. o
        91    2   0 -18   4   61594.   57579.    1123. o
        91    1   4  18   0   61594.   57579.    1123. o
        92    2   0 -18  -4   60674.   58911.    1144. o
        92    1  -4  18   0   60674.   58911.    1144. o
        93    2   0 -18   6    1444.    2984.     718. o
        93    1   6  18   0    1444.    2984.     718. o
        94    2   0 -18  -6     493.    2265.     852. o
        94    1  -6  18   0     493.    2265.     852. o
        95    2   0 -18   8   20966.   19291.     863. o
        95    1   8  18   0   20966.   19291.     863. o
        96    2   0 -18  -8   21619.   16653.    1010. o
        96    1  -8  18   0   21619.   16653.    1010. o
        97    2   0 -20   0   95980.  113799.    2608. o
        97    1   0  20   0   95980.  113799.    2608. o
        98    2   0 -20   2    4575.    1492.    1121. <
        98    1   2  20   0    4575.    1492.    1121. <
        99    2   0 -20  -2    2484.    1439.     827. <
        99    1  -2  20   0    2484.    1439.     827. <
       100    2   0 -20   4   19253.   13908.     878. o
       100    1   4  20   0   19253.   13908.     878. o
       101    2   0 -20  -4   21205.   15107.    1014. o
       101    1  -4  20   0   21205.   15107.    1014. o
       102    2   0 -20   6    4863.    3464.     721. o
       102    1   6  20   0    4863.    3464.     721. o
       103    2   0 -20  -6    4412.    3997.     853. o
       103    1  -6  20   0    4412.    3997.     853. o
       104    2   0 -20   8     509.    1865.     612. o
       104    1   8  20   0     509.    1865.     612. o
       105    2   0 -20  -8     679.     906.     906. <
       105    1  -8  20   0     679.     906.     906. <
       106    2   0 -22   0  400692.  472593.    3173. o
       106    1   0  22   0  400692.  472593.    3173. o
       107    2   0 -22   2   67715.   64133.    1846. o
       107    1   2  22   0   67715.   64133.    1846. o
       108    2   0 -22  -2   61474.   60883.    1366. o
       108    1  -2  22   0   61474.   60883.    1366. o
       109    2   0 -22   4  199034.  145372.    3017. o
       109    1   4  22   0  199034.  145372.    3017. o
       110    2   0 -22  -4  208515.  209958.    1712. o
       110    1  -4  22   0  208515.  209958.    1712. o
       111    2   0 -22   6   68142.   64799.    1120. o
       111    1   6  22   0   68142.   64799.    1120. o
       112    2   0 -22  -6   65542.   71913.    1096. o
       112    1  -6  22   0   65542.   71913.    1096. o
       113    2   0 -22   8   33989.   34505.    1035. o
       113    1   8  22   0   33989.   34505.    1035. o
       114    2   0 -22  -8   35116.   35038.    1200. o
       114    1  -8  22   0   35116.   35038.    1200. o
       115    2   0 -24   0     308.    2771.    1731. <
       115    1   0  24   0     308.    2771.    1731. <
       116    2   0 -24   2   11969.   10098.    1788. o
       116    1   2  24   0   11969.   10098.    1788. o
       117    2   0 -24  -2    9984.    9326.     881. o
       117    1  -2  24   0    9984.    9326.     881. o
       118    2   0 -24   4    7699.    5276.    1601. o
       118    1   4  24   0    7699.    5276.    1601. o
       119    2   0 -24  -4   10062.    3890.     681. o
       119    1  -4  24   0   10062.    3890.     681. o
       120    2   0 -24   6    7692.    7487.     986. o
       120    1   6  24   0    7692.    7487.     986. o
       121    2   0 -24  -6    7177.    7594.     932. o
       121    1  -6  24   0    7177.    7594.     932. o
       122    2   0 -24   8    1008.    1652.     746. o
       122    1   8  24   0    1008.    1652.     746. o
       123    2   0 -24  -8    1569.    1892.     986. <
       123    1  -8  24   0    1569.    1892.     986. <
       124    2   0 -26   0    2413.     639.    1120. <
       124    1   0  26   0    2413.     639.    1120. <
       125    2   0 -26   2   28146.   39274.    2027. o
       125    1   2  26   0   28146.   39274.    2027. o
       126    2   0 -26  -2   30959.   40739.    1057. o
       126    1  -2  26   0   30959.   40739.    1057. o
       127    2   0 -26   4   32354.   23607.    1378. o
       127    1   4  26   0   32354.   23607.    1378. o
       128    2   0 -26  -4   31724.   27284.     917. o
       128    1  -4  26   0   31724.   27284.     917. o
       129    2   0 -26   6   13554.   16946.    1241. o
       129    1   6  26   0   13554.   16946.    1241. o
       130    2   0 -26  -6   13366.   18571.     989. o
       130    1  -6  26   0   13366.   18571.     989. o
       131    2   0 -26   8   19609.   17239.     813. o
       131    1   8  26   0   19609.   17239.     813. o
       132    2   0 -26  -8   20376.   20570.    1305. o
       132    1  -8  26   0   20376.   20570.    1305. o
       133    2   0 -28   0   95944.   94828.    2542. o
       133    1   0  28   0   95944.   94828.    2542. o
       134    2   0 -28   2   19865.   17852.    1658. o
       134    1   2  28   0   19865.   17852.    1658. o
       135    2   0 -28  -2   16497.   17559.     927. o
       135    1  -2  28   0   16497.   17559.     927. o
       136    2   0 -28   4   55236.   51744.    1629. o
       136    1   4  28   0   55236.   51744.    1629. o
       137    2   0 -28  -4   56367.   57499.    1022. o
       137    1  -4  28   0   56367.   57499.    1022. o
       138    2   0 -28   6   26538.   30588.    1714. o
       138    1   6  28   0   26538.   30588.    1714. o
       139    2   0 -28  -6   25384.   33785.     884. o
       139    1  -6  28   0   25384.   33785.     884. o
       140    2   0 -28   8    6612.    6714.    1039. o
       140    1   8  28   0    6612.    6714.    1039. o
       141    2   0 -28  -8    6449.    7780.    1197. o
       141    1  -8  28   0    6449.    7780.    1197. o
       142    2   0 -30   0  426768.  434305.    4306. o
       142    1   0  30   0  426768.  434305.    4306. o
       143    2   0 -30   2  207370.  217978.    2630. o
       143    1   2  30   0  207370.  217978.    2630. o
       144    2   0 -30  -2  200233.  239241.    4710. o
       144    1  -2  30   0  200233.  239241.    4710. o
       145    2   0 -30   4  147662.  160453.    2340. o
       145    1   4  30   0  147662.  160453.    2340. o
       146    2   0 -30  -4  149751.  154378.    1272. o
       146    1  -4  30   0  149751.  154378.    1272. o
       147    2   0 -30   6   71046.   68343.    1708. o
       147    1   6  30   0   71046.   68343.    1708. o
       148    2   0 -30  -6   69075.   77402.    1021. o
       148    1  -6  30   0   69075.   77402.    1021. o
       149    2   0 -30   8   16866.   10738.    1321. o
       149    1   8  30   0   16866.   10738.    1321. o
       150    2   0 -30  -8   16940.   18331.    1140. o
       150    1  -8  30   0   16940.   18331.    1140. o
       151    2   0 -32   0   31220.   49745.    1632. o
       151    1   0  32   0   31220.   49745.    1632. o
       152    2   0 -32   2    4974.    -320.    1041. <
       152    1   2  32   0    4974.    -320.    1041. <
       153    2   0 -32  -2    4716.     453.     961. <
       153    1  -2  32   0    4716.     453.     961. <
       154    2   0 -32   4    8333.    7780.    1706. o
       154    1   4  32   0    8333.    7780.    1706. o
       155    2   0 -32  -4    8208.    8153.     773. o
       155    1  -4  32   0    8208.    8153.     773. o
       156    2   0 -32   6    3699.    1066.    1600. <
       156    1   6  32   0    3699.    1066.    1600. <
       157    2   0 -32  -6    3038.    2185.     827. o
       157    1  -6  32   0    3038.    2185.     827. o
       158    2   0 -32   8    1176.    1465.    1066. <
       158    1   8  32   0    1176.    1465.    1066. <
       159    2   0 -32  -8    1395.    1599.     932. <
       159    1  -8  32   0    1395.    1599.     932. <
       160    2   0 -34   0      89.     266.    1545. <
       160    1   0  34   0      89.     266.    1545. <
       161    2   0 -34   2    9654.   15507.    1532. o
       161    1   2  34   0    9654.   15507.    1532. o
       162    2   0 -34  -2    9856.   18571.    1059. o
       162    1  -2  34   0    9856.   18571.    1059. o
       163    2   0 -34   4    6225.    1945.    1574. <
       163    1   4  34   0    6225.    1945.    1574. <
       164    2   0 -34  -4    5635.    1146.     750. <
       164    1  -4  34   0    5635.    1146.     750. <
       165    2   0 -34   6     751.    2771.    1625. <
       165    1   6  34   0     751.    2771.    1625. <
       166    2   0 -34  -6     519.    1412.     772. <
       166    1  -6  34   0     519.    1412.     772. <
       167    2   0 -34   8    1977.    3331.    1651. o
       167    1   8  34   0    1977.    3331.    1651. o
       168    2   0 -34  -8    2186.    1998.     879. o
       168    1  -8  34   0    2186.    1998.     879. o
       169    2   0 -36   0  133249.  125442.    2354. o
       169    1   0  36   0  133249.  125442.    2354. o
       170    2   0 -36   2   57464.   71407.    1494. o
       170    1   2  36   0   57464.   71407.    1494. o
       171    2   0 -36  -2   56534.   83744.     954. o
       171    1  -2  36   0   56534.   83744.     954. o
       172    2   0 -36   4   39213.   36663.    1932. o
       172    1   4  36   0   39213.   36663.    1932. o
       173    2   0 -36  -4   42001.   38741.    1020. o
       173    1  -4  36   0   42001.   38741.    1020. o
       174    2   0 -36   6   22816.   24273.    1860. o
       174    1   6  36   0   22816.   24273.    1860. o
       175    2   0 -36  -6   22270.   25126.     967. o
       175    1  -6  36   0   22270.   25126.     967. o
       176    2   0 -38   0   18787.   22088.    1614. o
       176    1   0  38   0   18787.   22088.    1614. o
       177    2   0 -38   2    6444.    6555.    1385. o
       177    1   2  38   0    6444.    6555.    1385. o
       178    2   0 -38  -2    6670.    3357.     963. o
       178    1  -2  38   0    6670.    3357.     963. o
       179    2   0 -38   4   12843.   14202.    1756. o
       179    1   4  38   0   12843.   14202.    1756. o
       180    2   0 -38  -4   15313.   17772.     894. o
       180    1  -4  38   0   15313.   17772.     894. o
       181    2   0 -38   6   13584.   12630.    1920. o
       181    1   6  38   0   13584.   12630.    1920. o
       182    2   0 -38  -6   13625.   13082.     961. o
       182    1  -6  38   0   13625.   13082.     961. o
       183    2   0 -40   0    6954.    1146.    1389. <
       183    1   0  40   0    6954.    1146.    1389. <
       184    2   0 -40   2   16443.   20783.    1099. o
       184    1   2  40   0   16443.   20783.    1099. o
       185    2   0 -40  -2   17236.   30348.     889. o
       185    1  -2  40   0   17236.   30348.     889. o
       186    2   0 -40   4   11177.    4530.    1130. o
       186    1   4  40   0   11177.    4530.    1130. o
       187    2   0 -40  -4   11417.    4716.     867. o
       187    1  -4  40   0   11417.    4716.     867. o
       188    2   0 -40   6    3358.    4903.    1704. o
       188    1   6  40   0    3358.    4903.    1704. o
       189    2   0 -40  -6    3373.    6688.     981. o
       189    1  -6  40   0    3373.    6688.     981. o
       190    2   0 -42   0    6344.    5569.    1413. o
       190    1   0  42   0    6344.    5569.    1413. o
       191    2   0 -42   2     973.    2158.    1225. <
       191    1   2  42   0     973.    2158.    1225. <
       192    2   0 -42  -2     843.     613.     826. <
       192    1  -2  42   0     843.     613.     826. <
       193    2   0 -42   4    1589.    1545.    1013. <
       193    1   4  42   0    1589.    1545.    1013. <
       194    2   0 -42  -4    1845.     986.     880. <
       194    1  -4  42   0    1845.     986.     880. <
       195    2   0 -42   6    1343.    2984.    1571. <
       195    1   6  42   0    1343.    2984.    1571. <
       196    2   0 -42  -6    1279.    1199.    1013. <
       196    1  -6  42   0    1279.    1199.    1013. <
       197    2   0 -44   0   45952.   43857.    1931. o
       197    1   0  44   0   45952.   43857.    1931. o
       198    2   0 -44   2   33618.   38688.    1567. o
       198    1   2  44   0   33618.   38688.    1567. o
       199    2   0 -44  -2   32238.   36103.     921. o
       199    1  -2  44   0   32238.   36103.     921. o
       200    2   0 -44   4   27081.   25472.    1659. o
       200    1   4  44   0   27081.   25472.    1659. o
       201    2   0 -44  -4   27585.   28643.    1085. o
       201    1  -4  44   0   27585.   28643.    1085. o
       202    2   0 -44   6   22028.   15507.    1434. o
       202    1   6  44   0   22028.   15507.    1434. o
       203    2   0 -44  -6   21982.   21902.    1173. o
       203    1  -6  44   0   21982.   21902.    1173. o
       204    2   0 -46   0   31632.   45642.    1865. o
       204    1   0  46   0   31632.   45642.    1865. o
       205    2   0 -46   2   20130.   12949.    1407. o
       205    1   2  46   0   20130.   12949.    1407. o
       206    2   0 -46  -2   19294.   13615.     957. o
       206    1  -2  46   0   19294.   13615.     957. o
       207    2   0 -46   4    8500.    8500.    1039. o
       207    1   4  46   0    8500.    8500.    1039. o
       208    2   0 -46  -4    8474.   11137.     952. o
       208    1  -4  46   0    8474.   11137.     952. o
       209    2   0 -48   0      58.    1039.    1385. <
       209    1   0  48   0      58.    1039.    1385. <
       210    2   0 -48   2     611.    4743.    1249. o
       210    1   2  48   0     611.    4743.    1249. o
       211    2   0 -48  -2     539.    2958.     824. o
       211    1  -2  48   0     539.    2958.     824. o
       212    2   0 -48   4    2491.       0.    1413. <
       212    1   4  48   0    2491.       0.    1413. <
       213    2   0 -48  -4    2206.     586.     880. <
       213    1  -4  48   0    2206.     586.     880. <
       214    2   0 -50   0    6181.    8500.    1382. o
       214    1   0  50   0    6181.    8500.    1382. o
       215    2   0 -50   2    5294.    5142.    1332. o
       215    1   2  50   0    5294.    5142.    1332. o
       216    2   0 -50  -2    4841.    5196.     852. o
       216    1  -2  50   0    4841.    5196.     852. o
       217    2   0 -50   4    3085.    2904.    1386. o
       217    1   4  50   0    3085.    2904.    1386. o
       218    2   0 -50  -4    3116.    3490.     959. o
       218    1  -4  50   0    3116.    3490.     959. o
       219    2   0 -52   0   19930.   17958.    1393. o
       219    1   0  52   0   19930.   17958.    1393. o
       220    2   0 -52   2   15687.   14548.    1442. o
       220    1   2  52   0   15687.   14548.    1442. o
       221    2   0 -52  -2   15749.   13775.     914. o
       221    1  -2  52   0   15749.   13775.     914. o
       222    2   0 -54   0    2073.     133.    1306. <
       222    1   0  54   0    2073.     133.    1306. <
       223    2   0 -54   2    1363.    1865.    1305. <
       223    1   2  54   0    1363.    1865.    1305. <
       224    2   0 -54  -2    1420.    2052.     746. o
       224    1  -2  54   0    1420.    2052.     746. o
       225    2   1  -1  -9   23134.   21689.     863. o
       225    1  -9   1   1   23134.   21689.     863. o
       226    2  -1  -1   9   23797.   21529.     842. o
       226    1   9   1  -1   23797.   21529.     842. o
       227    2   1  -1  -7  100029.  108496.    1045. o
       227    1  -7   1   1  100029.  108496.    1045. o
       228    2  -1  -1   7   96498.   93762.    1004. o
       228    1   7   1  -1   96498.   93762.    1004. o
       229    2   1  -1  -5  197805.  216966.     635. o
       229    1  -5   1   1  197805.  216966.     635. o
       230    2  -1  -1   5  202474.  205802.    1248. o
       230    1   5   1  -1  202474.  205802.    1248. o
       231    2   1  -1  -3  616476.  608613.    3063. o
       231    1  -3   1   1  616476.  608613.    3063. o
       232    2  -1  -1   3  617333.  619218.    2489. o
       232    1   3   1  -1  617333.  619218.    2489. o
       233    2   1  -1  -1  660039.  556363.    6684. o
       233    1  -1   1   1  660039.  556363.    6684. o
       234    2  -1  -1   1  659322.  563664.    6510. o
       234    1   1   1  -1  659322.  563664.    6510. o
       235    2   1  -1   1  657541.  536540.    8101. o
       235    1   1   1   1  657541.  536540.    8101. o
       236    2  -1  -1  -1  661819.  554978.    8614. o
       236    1  -1   1  -1  661819.  554978.    8614. o
       237    2   1  -1   3  623881.  625745.    3044. o
       237    1   3   1   1  623881.  625745.    3044. o
       238    2  -1  -1  -3  609927.  621989.    2897. o
       238    1  -3   1  -1  609927.  621989.    2897. o
       239    2   1  -1   5  196529.  212117.     867. o
       239    1   5   1   1  196529.  212117.     867. o
       240    2  -1  -1  -5  203750.  204150.    1692. o
       240    1  -5   1  -1  203750.  204150.    1692. o
       241    2   1  -1   7   99216.   93069.    1203. o
       241    1   7   1   1   99216.   93069.    1203. o
       242    2  -1  -1  -7   97311.   98611.    1306. o
       242    1  -7   1  -1   97311.   98611.    1306. o
       243    2   1  -1   9   23161.   21609.     890. o
       243    1   9   1   1   23161.   21609.     890. o
       244    2  -1  -1  -9   23770.   23021.    1203. o
       244    1  -9   1  -1   23770.   23021.    1203. o
       245    1 -10   2   1    2637.     -53.     720. <
       246    1  10   2  -1    2608.      53.     747. <
       247    1  -8   2   1    4785.    -266.     881. <
       248    1   8   2  -1    4887.    -453.     536. <
       249    1  -6   2   1    6026.    5062.     907. o
       250    1   6   2  -1    5796.    4636.     589. o
       251    1  -4   2   1    6278.   15321.     761. o
       252    1   4   2  -1    6571.   17266.     862. o
       253    1  -2   2   1    4745.    7061.     768. o
       254    1   2   2  -1    4755.    6874.     715. o
       255    1   2   2   1    4755.   10445.    1134. o
       256    1  -2   2  -1    4745.   10018.    1162. o
       257    1   4   2   1    6571.   15107.     791. o
       258    1  -4   2  -1    6278.   17585.    1164. o
       259    1   6   2   1    5796.    3251.     591. o
       260    1  -6   2  -1    6026.    3810.     882. o
       261    1   8   2   1    4887.     453.     590. <
       262    1  -8   2  -1    4785.     746.     776. <
       263    1  10   2   1    2608.    1252.     747. <
       264    1 -10   2  -1    2637.      27.    1120. <
       265    2   1  -3  -9    4991.    8207.    1006. o
       265    1  -9   3   1    4991.    8207.    1006. o
       266    2  -1  -3   9    5314.    8446.     711. o
       266    1   9   3  -1    5314.    8446.     711. o
       267    2   1  -3  -7    9460.    8073.     671. o
       267    1  -7   3   1    9460.    8073.     671. o
       268    2  -1  -3   7   10593.    7833.     702. o
       268    1   7   3  -1   10593.    7833.     702. o
       269    2   1  -3  -5   18152.   19877.     842. o
       269    1  -5   3   1   18152.   19877.     842. o
       270    2  -1  -3   5   17781.   18704.     686. o
       270    1   5   3  -1   17781.   18704.     686. o
       271    2   1  -3  -3   13942.   20143.     900. o
       271    1  -3   3   1   13942.   20143.     900. o
       272    2  -1  -3   3   15384.   20010.     687. o
       272    1   3   3  -1   15384.   20010.     687. o
       273    2   1  -3  -1   74532.   61256.    1544. o
       273    1  -1   3   1   74532.   61256.    1544. o
       274    2  -1  -3   1   74713.   61043.    1596. o
       274    1   1   3  -1   74713.   61043.    1596. o
       275    2   1  -3   1   75162.   61522.    2318. o
       275    1   1   3   1   75162.   61522.    2318. o
       276    2  -1  -3  -1   74082.   62828.    2790. o
       276    1  -1   3  -1   74082.   62828.    2790. o
       277    2   1  -3   3   14094.   16946.     919. o
       277    1   3   3   1   14094.   16946.     919. o
       278    2  -1  -3  -3   15231.   16093.    1089. o
       278    1  -3   3  -1   15231.   16093.    1089. o
       279    2   1  -3   5   18930.   17079.     889. o
       279    1   5   3   1   18930.   17079.     889. o
       280    2  -1  -3  -5   17002.   16386.     989. o
       280    1  -5   3  -1   17002.   16386.     989. o
       281    2   1  -3   7   10613.    8739.     620. o
       281    1   7   3   1   10613.    8739.     620. o
       282    2  -1  -3  -7    9440.    8233.     776. o
       282    1  -7   3  -1    9440.    8233.     776. o
       283    2   1  -3   9    5016.    5169.     746. o
       283    1   9   3   1    5016.    5169.     746. o
       284    2  -1  -3  -9    5289.    5995.    1118. o
       284    1  -9   3  -1    5289.    5995.    1118. o
       285    1 -10   4   1     651.     906.     746. <
       286    1  10   4  -1     643.    1492.     746. <
       287    1  -8   4   1     931.     -53.     640. <
       288    1   8   4  -1     906.      27.     560. <
       289    1  -6   4   1    2233.    5675.     821. o
       290    1   6   4  -1    2333.    5276.     715. o
       291    1  -4   4   1    4003.   12869.     769. o
       292    1   4   4  -1    3984.   12203.     690. o
       293    1  -2   4   1    1877.    6128.     658. o
       294    1   2   4  -1    1552.    7674.     761. o
       295    1   2   4   1    1552.    6448.     979. o
       296    1  -2   4  -1    1877.    7674.    1192. o
       297    1   4   4   1    3984.   13189.     906. o
       298    1  -4   4  -1    4003.   15480.    1114. o
       299    1   6   4   1    2333.    4050.     717. o
       300    1  -6   4  -1    2233.    4396.     904. o
       301    1   8   4   1     906.     773.     693. <
       302    1  -8   4  -1     931.     746.    1013. <
       303    1  10   4   1     643.    -986.     613. <
       304    1 -10   4  -1     651.     719.     826. <
       305    2   1  -5  -9    2979.    5835.    1009. o
       305    1  -9   5   1    2979.    5835.    1009. o
       306    2  -1  -5   9    2878.    4929.     609. o
       306    1   9   5  -1    2878.    4929.     609. o
       307    2   1  -5  -7    6287.    8580.     766. o
       307    1  -7   5   1    6287.    8580.     766. o
       308    2  -1  -5   7    6166.    6528.     558. o
       308    1   7   5  -1    6166.    6528.     558. o
       309    2   1  -5  -5   13202.   15267.     789. o
       309    1  -5   5   1   13202.   15267.     789. o
       310    2  -1  -5   5   12354.   12976.     797. o
       310    1   5   5  -1   12354.   12976.     797. o
       311    2   1  -5  -3    5229.   10604.     865. o
       311    1  -3   5   1    5229.   10604.     865. o
       312    2  -1  -5   3    5540.    8766.     764. o
       312    1   3   5  -1    5540.    8766.     764. o
       313    2   1  -5  -1    3567.    5782.     876. o
       313    1  -1   5   1    3567.    5782.     876. o
       314    2  -1  -5   1    3345.    6182.     982. o
       314    1   1   5  -1    3345.    6182.     982. o
       315    2   1  -5   1    2793.    5595.    1436. o
       315    1   1   5   1    2793.    5595.    1436. o
       316    2  -1  -5  -1    4120.    5808.    2237. o
       316    1  -1   5  -1    4120.    5808.    2237. o
       317    2   1  -5   3    5860.    4316.     855. o
       317    1   3   5   1    5860.    4316.     855. o
       318    2  -1  -5  -3    4909.    4636.     960. o
       318    1  -3   5  -1    4909.    4636.     960. o
       319    2   1  -5   5   12189.   11350.     882. o
       319    1   5   5   1   12189.   11350.     882. o
       320    2  -1  -5  -5   13367.   12550.    1095. o
       320    1  -5   5  -1   13367.   12550.    1095. o
       321    2   1  -5   7    6037.    8580.     712. o
       321    1   7   5   1    6037.    8580.     712. o
       322    2  -1  -5  -7    6415.    9086.    1034. o
       322    1  -7   5  -1    6415.    9086.    1034. o
       323    2   1  -5   9    2874.    3171.     586. o
       323    1   9   5   1    2874.    3171.     586. o
       324    2  -1  -5  -9    2982.    5915.    1089. o
       324    1  -9   5  -1    2982.    5915.    1089. o
       325    1 -10   6   1    1092.     213.     746. <
       326    1  10   6  -1    1095.    1386.     586. o
       327    1  -8   6   1    1191.    1572.     746. o
       328    1   8   6  -1    1140.    2078.     799. o
       329    1  -6   6   1    1839.    9086.     810. o
       330    1   6   6  -1    1981.   10445.     832. o
       331    1  -4   6   1    1267.   18891.     864. o
       332    1   4   6  -1    1175.   14308.     698. o
       333    1  -2   6   1    3856.   15267.     867. o
       334    1   2   6  -1    3375.   18651.     956. o
       335    1   2   6   1    3375.   15347.    1196. o
       336    1  -2   6  -1    3856.   13376.    1204. o
       337    1   4   6   1    1175.   14921.     750. o
       338    1  -4   6  -1    1267.   13988.     841. o
       339    1   6   6   1    1981.    7247.     844. o
       340    1  -6   6  -1    1839.    6155.    1114. o
       341    1   8   6   1    1140.    3091.     691. o
       342    1  -8   6  -1    1191.    1172.    1092. <
       343    1  10   6   1    1095.    1599.     772. o
       344    1 -10   6  -1    1092.    -933.     879. <
       345    2   1  -7  -9   30905.   31547.    1007. o
       345    1  -9   7   1   30905.   31547.    1007. o
       346    2  -1  -7   9   31984.   28057.     862. o
       346    1   9   7  -1   31984.   28057.     862. o
       347    2   1  -7  -7  102195.  109029.    1147. o
       347    1  -7   7   1  102195.  109029.    1147. o
       348    2  -1  -7   7   97698.  103834.     896. o
       348    1   7   7  -1   97698.  103834.     896. o
       349    2   1  -7  -5  125974.  129439.    1154. o
       349    1  -5   7   1  125974.  129439.    1154. o
       350    2  -1  -7   5  134068.  122724.    1400. o
       350    1   5   7  -1  134068.  122724.    1400. o
       351    2   1  -7  -3  304859.  296660.    2257. o
       351    1  -3   7   1  304859.  296660.    2257. o
       352    2  -1  -7   3  296990.  294395.    1997. o
       352    1   3   7  -1  296990.  294395.    1997. o
       353    2   1  -7  -1  325970.  344353.    1519. o
       353    1  -1   7   1  325970.  344353.    1519. o
       354    2  -1  -7   1  322806.  311128.    4210. o
       354    1   1   7  -1  322806.  311128.    4210. o
       355    2   1  -7   1  314951.  335560.    5149. o
       355    1   1   7   1  314951.  335560.    5149. o
       356    2  -1  -7  -1  333825.  320426.    5466. o
       356    1  -1   7  -1  333825.  320426.    5466. o
       357    2   1  -7   3  307388.  265912.    3259. o
       357    1   3   7   1  307388.  265912.    3259. o
       358    2  -1  -7  -3  294460.  292050.    2656. o
       358    1  -3   7  -1  294460.  292050.    2656. o
       359    2   1  -7   5  125400.  124163.    1285. o
       359    1   5   7   1  125400.  124163.    1285. o
       360    2  -1  -7  -5  134642.  128213.    1733. o
       360    1  -5   7  -1  134642.  128213.    1733. o
       361    2   1  -7   7  101642.  103327.    1132. o
       361    1   7   7   1  101642.  103327.    1132. o
       362    2  -1  -7  -7   98250.  104606.    1254. o
       362    1  -7   7  -1   98250.  104606.    1254. o
       363    2   1  -7   9   30693.   30614.     960. o
       363    1   9   7   1   30693.   30614.     960. o
       364    2  -1  -7  -9   32196.   27524.    1048. o
       364    1  -9   7  -1   32196.   27524.    1048. o
       365    1  -8   8   1    4971.     906.     829. <
       366    1   8   8  -1    5024.     986.     590. <
       367    1  -6   8   1    8614.    8580.     799. o
       368    1   6   8  -1    8477.    8873.     745. o
       369    1  -4   8   1    4576.   22062.     877. o
       370    1   4   8  -1    4595.   17452.     769. o
       371    1  -2   8   1    7666.   23021.     995. o
       372    1   2   8  -1    8080.   18704.     857. o
       373    1   2   8   1    8080.   27097.    1307. o
       374    1  -2   8  -1    7667.   31814.    1528. o
       375    1   4   8   1    4595.   18118.     850. o
       376    1  -4   8  -1    4576.   18331.    1017. o
       377    1   6   8   1    8477.    7567.     802. o
       378    1  -6   8  -1    8614.    8153.    1093. o
       379    1   8   8   1    5024.    1359.     643. o
       380    1  -8   8  -1    4971.    1146.     882. <
       381    2   1  -9  -9    3378.    5542.    1010. o
       381    1  -9   9   1    3378.    5542.    1010. o
       382    2  -1  -9   9    3641.    5462.     743. o
       382    1   9   9  -1    3641.    5462.     743. o
       383    2   1  -9  -7   13489.   13402.     826. o
       383    1  -7   9   1   13489.   13402.     826. o
       384    2  -1  -9   7   13165.   12203.     830. o
       384    1   7   9  -1   13165.   12203.     830. o
       385    2   1  -9  -5   11382.   10604.     749. o
       385    1  -5   9   1   11382.   10604.     749. o
       386    2  -1  -9   5   13922.    9006.     713. o
       386    1   5   9  -1   13922.    9006.     713. o
       387    2   1  -9  -3   46119.   51744.    1050. o
       387    1  -3   9   1   46119.   51744.    1050. o
       388    2  -1  -9   3   45177.   49266.     988. o
       388    1   3   9  -1   45177.   49266.     988. o
       389    2   1  -9  -1   34382.   33386.    1048. o
       389    1  -1   9   1   34382.   33386.    1048. o
       390    2  -1  -9   1   33690.   36316.    1959. o
       390    1   1   9  -1   33690.   36316.    1959. o
       391    2   1  -9   1   31971.   35224.    2974. o
       391    1   1   9   1   31971.   35224.    2974. o
       392    2  -1  -9  -1   36101.   33545.    2355. o
       392    1  -1   9  -1   36101.   33545.    2355. o
       393    2   1  -9   3   48818.   40953.    1124. o
       393    1   3   9   1   48818.   40953.    1124. o
       394    2  -1  -9  -3   42478.   45242.    1253. o
       394    1  -3   9  -1   42478.   45242.    1253. o
       395    2   1  -9   5   11844.    9139.     808. o
       395    1   5   9   1   11844.    9139.     808. o
       396    2  -1  -9  -5   13460.    9272.    1077. o
       396    1  -5   9  -1   13460.    9272.    1077. o
       397    2   1  -9   7   13768.   14255.     744. o
       397    1   7   9   1   13768.   14255.     744. o
       398    2  -1  -9  -7   12886.   14681.    1086. o
       398    1  -7   9  -1   12886.   14681.    1086. o
       399    2   1  -9   9    3513.    2798.     853. o
       399    1   9   9   1    3513.    2798.     853. o
       400    2  -1  -9  -9    3507.    2611.     774. o
       400    1  -9   9  -1    3507.    2611.     774. o
       401    1  -8  10   1     466.     613.     933. <
       402    1   8  10  -1     486.    1092.     799. <
       403    1  -6  10   1    1537.    3384.     637. o
       404    1   6  10  -1    1501.    2025.     586. o
       405    1  -4  10   1    2051.    8739.     866. o
       406    1   4  10  -1    2202.    6981.     710. o
       407    1  -2  10   1    5149.   13615.     988. o
       408    1   2  10  -1    4851.    8420.     737. o
       409    1   2  10   1    4851.    7327.     901. o
       410    1  -2  10  -1    5149.    7780.    1115. o
       411    1   4  10   1    2202.    5729.     633. o
       412    1  -4  10  -1    2051.    8260.    1110. o
       413    1   6  10   1    1501.    2211.     692. o
       414    1  -6  10  -1    1537.    1972.     879. o
       415    1   8  10   1     486.    1119.     799. <
       416    1  -8  10  -1     466.    1092.     906. <
       417    2   1 -11  -9   13409.   14841.     792. o
       417    1  -9  11   1   13409.   14841.     792. o
       418    2  -1 -11   9   13675.   14468.     688. o
       418    1   9  11  -1   13675.   14468.     688. o
       419    2   1 -11  -7   30876.   35917.     910. o
       419    1  -7  11   1   30876.   35917.     910. o
       420    2  -1 -11   7   31331.   32959.     809. o
       420    1   7  11  -1   31331.   32959.     809. o
       421    2   1 -11  -5   66353.   75564.     947. o
       421    1  -5  11   1   66353.   75564.     947. o
       422    2  -1 -11   5   65871.   69755.     882. o
       422    1   5  11  -1   65871.   69755.     882. o
       423    2   1 -11  -3   51042.   53582.    1114. o
       423    1  -3  11   1   51042.   53582.    1114. o
       424    2  -1 -11   3   54498.   53502.    1027. o
       424    1   3  11  -1   54498.   53502.    1027. o
       425    2   1 -11  -1   53077.   49452.    1472. o
       425    1  -1  11   1   53077.   49452.    1472. o
       426    2  -1 -11   1   54184.   50385.    1631. o
       426    1   1  11  -1   54184.   50385.    1631. o
       427    2   1 -11   1   56932.   50172.    2831. o
       427    1   1  11   1   56932.   50172.    2831. o
       428    2  -1 -11  -1   50328.   46628.    2338. o
       428    1  -1  11  -1   50328.   46628.    2338. o
       429    2   1 -11   3   53084.   47507.    1284. o
       429    1   3  11   1   53084.   47507.    1284. o
       430    2  -1 -11  -3   52456.   47587.    1431. o
       430    1  -3  11  -1   52456.   47587.    1431. o
       431    2   1 -11   5   66122.   67730.    1066. o
       431    1   5  11   1   66122.   67730.    1066. o
       432    2  -1 -11  -5   66102.   72739.    1292. o
       432    1  -5  11  -1   66102.   72739.    1292. o
       433    2   1 -11   7   31320.   34878.     814. o
       433    1   7  11   1   31320.   34878.     814. o
       434    2  -1 -11  -7   30888.   33785.     905. o
       434    1  -7  11  -1   30888.   33785.     905. o
       435    2   1 -11   9   13269.   15107.     790. o
       435    1   9  11   1   13269.   15107.     790. o
       436    2  -1 -11  -9   13815.   15267.    1087. o
       436    1  -9  11  -1   13815.   15267.    1087. o
       437    1  -8  12   1    2690.     906.     667. <
       438    1   8  12  -1    2696.    1519.     587. o
       439    1  -6  12   1    3546.    9192.     704. o
       440    1   6  12  -1    3374.   11271.     721. o
       441    1  -4  12   1    5867.   20436.     922. o
       442    1   4  12  -1    6233.   11404.     646. o
       443    1  -2  12   1   18456.   17266.    1045. o
       444    1   2  12  -1   17830.   12843.    1241. o
       445    1   2  12   1   17830.    7034.    1016. o
       446    1  -2  12  -1   18456.   10045.    1223. o
       447    1   4  12   1    6233.   15747.     786. o
       448    1  -4  12  -1    5867.   23554.    1156. o
       449    1   6  12   1    3374.    6528.     901. o
       450    1  -6  12  -1    3546.    6928.     981. o
       451    1   8  12   1    2696.    2078.     693. o
       452    1  -8  12  -1    2690.    2531.    1066. o
       453    2   1 -13  -9    5406.    5569.     906. o
       453    1  -9  13   1    5406.    5569.     906. o
       454    2  -1 -13   9    5758.    5515.     773. o
       454    1   9  13  -1    5758.    5515.     773. o
       455    2   1 -13  -7   26487.   28030.     812. o
       455    1  -7  13   1   26487.   28030.     812. o
       456    2  -1 -13   7   25906.   26618.     900. o
       456    1   7  13  -1   25906.   26618.     900. o
       457    2   1 -13  -5   37661.   38448.     789. o
       457    1  -5  13   1   37661.   38448.     789. o
       458    2  -1 -13   5   38745.   37515.     867. o
       458    1   5  13  -1   38745.   37515.     867. o
       459    2   1 -13  -3   80614.   87847.    1143. o
       459    1  -3  13   1   80614.   87847.    1143. o
       460    2  -1 -13   3   77178.   84463.    1148. o
       460    1   3  13  -1   77178.   84463.    1148. o
       461    2   1 -13  -1   36236.   25019.    1119. o
       461    1  -1  13   1   36236.   25019.    1119. o
       462    2  -1 -13   1   35150.   29042.    2129. o
       462    1   1  13  -1   35150.   29042.    2129. o
       463    2   1 -13   1   32455.   28962.    1959. o
       463    1   1  13   1   32455.   28962.    1959. o
       464    2  -1 -13  -1   38932.   27071.    2073. o
       464    1  -1  13  -1   38932.   27071.    2073. o
       465    2   1 -13   3   80138.   73565.    1478. o
       465    1   3  13   1   80138.   73565.    1478. o
       466    2  -1 -13  -3   77655.   81319.    1576. o
       466    1  -3  13  -1   77655.   81319.    1576. o
       467    2   1 -13   5   37405.   30934.     843. o
       467    1   5  13   1   37405.   30934.     843. o
       468    2  -1 -13  -5   39001.   39114.    1225. o
       468    1  -5  13  -1   39001.   39114.    1225. o
       469    2   1 -13   7   26497.   25712.     912. o
       469    1   7  13   1   26497.   25712.     912. o
       470    2  -1 -13  -7   25896.   26991.    1112. o
       470    1  -7  13  -1   25896.   26991.    1112. o
       471    2   1 -13   9    5617.    4103.     749. o
       471    1   9  13   1    5617.    4103.     749. o
       472    2  -1 -13  -9    5548.    5862.    1039. o
       472    1  -9  13  -1    5548.    5862.    1039. o
       473    1  -8  14   1    1013.     400.     693. <
       474    1   8  14  -1    1069.     -53.     586. <
       475    1  -6  14   1    2359.    6608.     873. o
       476    1   6  14  -1    2299.    4609.     743. o
       477    1  -4  14   1    1825.   12869.     820. o
       478    1   4  14  -1    1843.   10525.     722. o
       479    1  -2  14   1    2513.    5515.     634. o
       480    1   2  14  -1    2374.    4423.    1091. o
       481    1   2  14   1    2374.    5968.    1889. o
       482    1  -2  14  -1    2513.    5675.     875. o
       483    1   4  14   1    1843.    9192.     755. o
       484    1  -4  14  -1    1825.   12203.    1124. o
       485    1   6  14   1    2299.    4583.     850. o
       486    1  -6  14  -1    2359.    3570.     905. o
       487    1   8  14   1    1069.     906.     586. <
       488    1  -8  14  -1    1013.    -906.     959. <
       489    2   1 -15  -9   30313.   30535.    1144. o
       489    1  -9  15   1   30313.   30535.    1144. o
       490    2  -1 -15   9   31385.   26431.    1023. o
       490    1   9  15  -1   31385.   26431.    1023. o
       491    2   1 -15  -7  108745.  106338.    1230. o
       491    1  -7  15   1  108745.  106338.    1230. o
       492    2  -1 -15   7  105566.  102954.    1182. o
       492    1   7  15  -1  105566.  102954.    1182. o
       493    2   1 -15  -5  230098.  240413.    1119. o
       493    1  -5  15   1  230098.  240413.    1119. o
       494    2  -1 -15   5  234158.  223760.    1889. o
       494    1   5  15  -1  234158.  223760.    1889. o
       495    2   1 -15  -3  682249.  681352.    2908. o
       495    1  -3  15   1  682249.  681352.    2908. o
       496    2  -1 -15   3  673142.  705386.   13988. o
       496    1   3  15  -1  673142.  705386.   13988. o
       497    2   1 -15  -1 1011020. 1008680.    4718. o
       497    1  -1  15   1 1011020. 1008680.    4718. o
       498    2  -1 -15   1 1009580.  968553.    8358. o
       498    1   1  15  -1 1009580.  968553.    8358. o
       499    2   1 -15   1 1006000. 1000530.    7369. o
       499    1   1  15   1 1006000. 1000530.    7369. o
       500    2  -1 -15  -1 1014600.  977879.    8526. o
       500    1  -1  15  -1 1014600.  977879.    8526. o
       501    2   1 -15   3  683262.  688760.    3072. o
       501    1   3  15   1  683262.  688760.    3072. o
       502    2  -1 -15  -3  672129.  684790.    2987. o
       502    1  -3  15  -1  672129.  684790.    2987. o
       503    2   1 -15   5  228407.  228476.    1623. o
       503    1   5  15   1  228407.  228476.    1623. o
       504    2  -1 -15  -5  235849.  247874.    1524. o
       504    1  -5  15  -1  235849.  247874.    1524. o
       505    2   1 -15   7  108101.  106871.    1254. o
       505    1   7  15   1  108101.  106871.    1254. o
       506    2  -1 -15  -7  106209.  110042.    1416. o
       506    1  -7  15  -1  106209.  110042.    1416. o
       507    2   1 -15   9   30539.   26591.    1041. o
       507    1   9  15   1   30539.   26591.    1041. o
       508    2  -1 -15  -9   31159.   26724.    1148. o
       508    1  -9  15  -1   31159.   26724.    1148. o
       509    1  -8  16   1    3718.     560.     828. <
       510    1   8  16  -1    3778.     933.     695. <
       511    1  -6  16   1    5815.    3277.     856. o
       512    1   6  16  -1    5824.    2211.     803. o
       513    1  -4  16   1    6093.   12603.     913. o
       514    1   4  16  -1    5888.    9299.     898. o
       515    1  -2  16   1    6896.    8713.     741. o
       516    1   2  16  -1    7229.    7327.    1172. o
       517    1   2  16   1    7229.    5435.    1441. o
       518    1  -2  16  -1    6896.    4157.     777. o
       519    1   4  16   1    5888.   10232.     787. o
       520    1  -4  16  -1    6093.   13109.    1128. o
       521    1   6  16   1    5824.    2052.     698. o
       522    1  -6  16  -1    5815.    1465.     910. <
       523    1   8  16   1    3778.     480.     721. <
       524    1  -8  16  -1    3718.     666.     774. <
       525    2   1 -17  -9     565.    2318.     958. o
       525    1  -9  17   1     565.    2318.     958. o
       526    2  -1 -17   9     601.    2238.     852. o
       526    1   9  17  -1     601.    2238.     852. o
       527    2   1 -17  -7    4837.    4876.     853. o
       527    1  -7  17   1    4837.    4876.     853. o
       528    2  -1 -17   7    4920.    4103.     721. o
       528    1   7  17  -1    4920.    4103.     721. o
       529    2   1 -17  -5    7602.    8260.     664. o
       529    1  -5  17   1    7602.    8260.     664. o
       530    2  -1 -17   5    7549.    8526.     877. o
       530    1   5  17  -1    7549.    8526.     877. o
       531    2   1 -17  -3   30008.   33466.     900. o
       531    1  -3  17   1   30008.   33466.     900. o
       532    2  -1 -17   3   29610.   32986.    1608. o
       532    1   3  17  -1   29610.   32986.    1608. o
       533    2   1 -17  -1   19783.   13855.    1037. o
       533    1  -1  17   1   19783.   13855.    1037. o
       534    2  -1 -17   1   19519.   14015.    2010. o
       534    1   1  17  -1   19519.   14015.    2010. o
       535    2   1 -17   1   18864.   12576.    1377. o
       535    1   1  17   1   18864.   12576.    1377. o
       536    2  -1 -17  -1   20439.   12709.    1671. o
       536    1  -1  17  -1   20439.   12709.    1671. o
       537    2   1 -17   3   30062.   28723.    1181. o
       537    1   3  17   1   30062.   28723.    1181. o
       538    2  -1 -17  -3   29556.   28057.    1076. o
       538    1  -3  17  -1   29556.   28057.    1076. o
       539    2   1 -17   5    7598.    6261.     723. o
       539    1   5  17   1    7598.    6261.     723. o
       540    2  -1 -17  -5    7553.    5729.     909. o
       540    1  -5  17  -1    7553.    5729.     909. o
       541    2   1 -17   7    4901.    6048.     770. o
       541    1   7  17   1    4901.    6048.     770. o
       542    2  -1 -17  -7    4856.    5116.    1119. o
       542    1  -7  17  -1    4856.    5116.    1119. o
       543    2   1 -17   9     582.     480.     906. <
       543    1   9  17   1     582.     480.     906. <
       544    2  -1 -17  -9     585.    1412.    1225. <
       544    1  -9  17  -1     585.    1412.    1225. <
       545    1  -8  18   1     297.    1679.     879. <
       546    1   8  18  -1     271.     639.     853. <
       547    1  -6  18   1    1140.    3943.     770. o
       548    1   6  18  -1    1210.    3224.     584. o
       549    1  -4  18   1    6783.    8473.     795. o
       550    1   4  18  -1    6584.    5995.     668. o
       551    1  -2  18   1    9015.    7034.     804. o
       552    1   2  18  -1    9095.    3704.    1126. o
       553    1   2  18   1    9095.    5542.    1895. o
       554    1  -2  18  -1    9015.    6075.     859. o
       555    1   4  18   1    6583.    7860.     823. o
       556    1  -4  18  -1    6783.   10791.    1110. o
       557    1   6  18   1    1210.    2451.     718. o
       558    1  -6  18  -1    1140.    2505.     878. o
       559    1   8  18   1     271.     266.     613. <
       560    1  -8  18  -1     297.     666.    1092. <
       561    2   1 -19  -9    4710.    8153.    1060. o
       561    1  -9  19   1    4710.    8153.    1060. o
       562    2  -1 -19   9    4644.    5915.     824. o
       562    1   9  19  -1    4644.    5915.     824. o
       563    2   1 -19  -7    8132.    8926.     957. o
       563    1  -7  19   1    8132.    8926.     957. o
       564    2  -1 -19   7    8509.    8606.     639. o
       564    1   7  19  -1    8509.    8606.     639. o
       565    2   1 -19  -5   19138.   20703.     923. o
       565    1  -5  19   1   19138.   20703.     923. o
       566    2  -1 -19   5   17871.   18198.     771. o
       566    1   5  19  -1   17871.   18198.     771. o
       567    2   1 -19  -3   13606.   14894.     632. o
       567    1  -3  19   1   13606.   14894.     632. o
       568    2  -1 -19   3   13962.   13855.    1119. o
       568    1   3  19  -1   13962.   13855.    1119. o
       569    2   1 -19  -1   29248.   34132.    1163. o
       569    1  -1  19   1   29248.   34132.    1163. o
       570    2  -1 -19   1   29090.   33892.    1816. o
       570    1   1  19  -1   29090.   33892.    1816. o
       571    2   1 -19   1   28697.   35410.    1779. o
       571    1   1  19   1   28697.   35410.    1779. o
       572    2  -1 -19  -1   29641.   33599.    1604. o
       572    1  -1  19  -1   29641.   33599.    1604. o
       573    2   1 -19   3   12692.   11777.    1281. o
       573    1   3  19   1   12692.   11777.    1281. o
       574    2  -1 -19  -3   14876.   12443.     810. o
       574    1  -3  19  -1   14876.   12443.     810. o
       575    2   1 -19   5   18664.   17985.     856. o
       575    1   5  19   1   18664.   17985.     856. o
       576    2  -1 -19  -5   18345.   16919.    1045. o
       576    1  -5  19  -1   18345.   16919.    1045. o
       577    2   1 -19   7    8467.    8260.     693. o
       577    1   7  19   1    8467.    8260.     693. o
       578    2  -1 -19  -7    8174.    8633.    1011. o
       578    1  -7  19  -1    8174.    8633.    1011. o
       579    2   1 -19   9    4602.    5808.     824. o
       579    1   9  19   1    4602.    5808.     824. o
       580    2  -1 -19  -9    4753.    6315.    1090. o
       580    1  -9  19  -1    4753.    6315.    1090. o
       581    1  -8  20   1     106.    2158.     878. o
       582    1   8  20  -1     108.    2078.     745. o
       583    1  -6  20   1     608.    7114.     923. o
       584    1   6  20  -1     613.    6155.     737. o
       585    1  -4  20   1    3092.   12630.     685. o
       586    1   4  20  -1    3092.   13589.    1554. o
       587    1  -2  20   1    3361.   14654.     757. o
       588    1   2  20  -1    3250.   13029.    1663. o
       589    1   2  20   1    3250.   11244.    2096. o
       590    1  -2  20  -1    3361.   11750.     884. o
       591    1   4  20   1    3092.   11058.     995. o
       592    1  -4  20  -1    3092.   13802.    1120. o
       593    1   6  20   1     613.    5116.     928. o
       594    1  -6  20  -1     608.    4796.     955. o
       595    1   8  20   1     108.    1732.     745. o
       596    1  -8  20  -1     106.     879.     959. <
       597    2   1 -21  -9    7955.    6661.     802. o
       597    1  -9  21   1    7955.    6661.     802. o
       598    2  -1 -21   9    8537.    6288.     831. o
       598    1   9  21  -1    8537.    6288.     831. o
       599    2   1 -21  -7   24795.   25419.     901. o
       599    1  -7  21   1   24795.   25419.     901. o
       600    2  -1 -21   7   23134.   23154.     826. o
       600    1   7  21  -1   23134.   23154.     826. o
       601    2   1 -21  -5   44531.   45962.    1076. o
       601    1  -5  21   1   44531.   45962.    1076. o
       602    2  -1 -21   5   47328.   42311.     994. o
       602    1   5  21  -1   47328.   42311.     994. o
       603    2   1 -21  -3  151790.  167274.     660. o
       603    1  -3  21   1  151790.  167274.     660. o
       604    2  -1 -21   3  148552.  155470.    2023. o
       604    1   3  21  -1  148552.  155470.    2023. o
       605    2   1 -21  -1  231362.  227277.    2372. o
       605    1  -1  21   1  231362.  227277.    2372. o
       606    2  -1 -21   1  230590.  221682.    3589. o
       606    1   1  21  -1  230590.  221682.    3589. o
       607    2   1 -21   1  228673.  225332.    3181. o
       607    1   1  21   1  228673.  225332.    3181. o
       608    2  -1 -21  -1  233279.  210864.    3162. o
       608    1  -1  21  -1  233279.  210864.    3162. o
       609    2   1 -21   3  152342.  152033.    2776. o
       609    1   3  21   1  152342.  152033.    2776. o
       610    2  -1 -21  -3  148000.  151874.    1527. o
       610    1  -3  21  -1  148000.  151874.    1527. o
       611    2   1 -21   5   44266.   40073.    1185. o
       611    1   5  21   1   44266.   40073.    1185. o
       612    2  -1 -21  -5   47594.   45828.    1296. o
       612    1  -5  21  -1   47594.   45828.    1296. o
       613    2   1 -21   7   24323.   23181.     887. o
       613    1   7  21   1   24323.   23181.     887. o
       614    2  -1 -21  -7   23605.   24140.    1089. o
       614    1  -7  21  -1   23605.   24140.    1089. o
       615    2   1 -21   9    8111.    4157.     701. o
       615    1   9  21   1    8111.    4157.     701. o
       616    2  -1 -21  -9    8381.    7247.    1201. o
       616    1  -9  21  -1    8381.    7247.    1201. o
       617    1  -8  22   1    2974.     346.     854. <
       618    1   8  22  -1    2990.     853.     747. <
       619    1  -6  22   1    3554.    2824.     800. o
       620    1   6  22  -1    3467.    3251.     746. o
       621    1  -4  22   1    4178.    4583.     505. o
       622    1   4  22  -1    4418.    4370.    1545. o
       623    1  -2  22   1    4273.    5888.     823. o
       624    1   2  22  -1    3971.    6288.    1703. o
       625    1   2  22   1    3971.    5649.    1331. o
       626    1  -2  22  -1    4273.    6634.     902. o
       627    1   4  22   1    4419.    2824.    1174. o
       628    1  -4  22  -1    4178.    5862.     930. o
       629    1   6  22   1    3467.    3171.     933. o
       630    1  -6  22  -1    3554.    2851.     986. o
       631    1   8  22   1    2990.    1519.     907. <
       632    1  -8  22  -1    2975.     693.     827. <
       633    2   1 -23  -9   12518.   13456.    1196. o
       633    1  -9  23   1   12518.   13456.    1196. o
       634    2  -1 -23   9   12870.   11031.     727. o
       634    1   9  23  -1   12870.   11031.     727. o
       635    2   1 -23  -7   35480.   38341.     956. o
       635    1  -7  23   1   35480.   38341.     956. o
       636    2  -1 -23   7   34077.   35490.     891. o
       636    1   7  23  -1   34077.   35490.     891. o
       637    2   1 -23  -5   38291.   43670.     808. o
       637    1  -5  23   1   38291.   43670.     808. o
       638    2  -1 -23   5   40357.   40899.    1274. o
       638    1   5  23  -1   40357.   40899.    1274. o
       639    2   1 -23  -3   60012.   61469.     879. o
       639    1  -3  23   1   60012.   61469.     879. o
       640    2  -1 -23   3   55728.   62348.    1531. o
       640    1   3  23  -1   55728.   62348.    1531. o
       641    2   1 -23  -1   35454.   25099.    1187. o
       641    1  -1  23   1   35454.   25099.    1187. o
       642    2  -1 -23   1   34511.   26085.    2267. o
       642    1   1  23  -1   34511.   26085.    2267. o
       643    2   1 -23   1   32170.   28137.    1803. o
       643    1   1  23   1   32170.   28137.    1803. o
       644    2  -1 -23  -1   37795.   25179.    1404. o
       644    1  -1  23  -1   37795.   25179.    1404. o
       645    2   1 -23   3   59305.   58831.    2215. o
       645    1   3  23   1   59305.   58831.    2215. o
       646    2  -1 -23  -3   56436.   59151.    1163. o
       646    1  -3  23  -1   56436.   59151.    1163. o
       647    2   1 -23   5   37957.   42152.     966. o
       647    1   5  23   1   37957.   42152.     966. o
       648    2  -1 -23  -5   40691.   46335.    1170. o
       648    1  -5  23  -1   40691.   46335.    1170. o
       649    2   1 -23   7   34992.   35730.     979. o
       649    1   7  23   1   34992.   35730.     979. o
       650    2  -1 -23  -7   34565.   42072.    1159. o
       650    1  -7  23  -1   34565.   42072.    1159. o
       651    2   1 -23   9   12619.   10764.    1018. o
       651    1   9  23   1   12619.   10764.    1018. o
       652    2  -1 -23  -9   12770.    9912.    1100. o
       652    1  -9  23  -1   12770.    9912.    1100. o
       653    1  -8  24   1     793.    1492.     692. o
       654    1   8  24  -1     784.     533.     613. <
       655    1  -6  24   1    2020.    2505.     639. o
       656    1   6  24  -1    2011.    2425.     746. o
       657    1  -4  24   1    2807.    6794.     738. o
       658    1   4  24  -1    2902.    4476.    1491. o
       659    1  -2  24   1    2740.   12603.     933. o
       660    1   2  24  -1    2537.    8713.    1806. o
       661    1   2  24   1    2537.   12630.    1367. o
       662    1  -2  24  -1    2740.   17319.    1130. o
       663    1   4  24   1    2902.    3997.    1705. o
       664    1  -4  24  -1    2807.    4849.     796. o
       665    1   6  24   1    2011.    3757.     797. o
       666    1  -6  24  -1    2020.    4530.    1117. o
       667    1   8  24   1     784.    -346.     959. <
       668    1  -8  24  -1     793.    -480.    1199. <
       669    2   1 -25  -7    9255.   10311.     742. o
       669    1  -7  25   1    9255.   10311.     742. o
       670    2  -1 -25   7    9230.    7780.     830. o
       670    1   7  25  -1    9230.    7780.     830. o
       671    2   1 -25  -5   21775.   25898.     737. o
       671    1  -5  25   1   21775.   25898.     737. o
       672    2  -1 -25   5   20830.   17612.    1107. o
       672    1   5  25  -1   20830.   17612.    1107. o
       673    2   1 -25  -3   12350.   13402.     768. o
       673    1  -3  25   1   12350.   13402.     768. o
       674    2  -1 -25   3   12876.   10898.    1098. o
       674    1   3  25  -1   12876.   10898.    1098. o
       675    2   1 -25  -1   13195.   11670.    1150. o
       675    1  -1  25   1   13195.   11670.    1150. o
       676    2  -1 -25   1   13325.   11484.    1602. o
       676    1   1  25  -1   13325.   11484.    1602. o
       677    2   1 -25   1   13648.   10978.    1551. o
       677    1   1  25   1   13648.   10978.    1551. o
       678    2  -1 -25  -1   12873.    9326.    1049. o
       678    1  -1  25  -1   12873.    9326.    1049. o
       679    2   1 -25   3   12230.   12336.    1892. o
       679    1   3  25   1   12230.   12336.    1892. o
       680    2  -1 -25  -3   12996.   11137.     912. o
       680    1  -3  25  -1   12996.   11137.     912. o
       681    2   1 -25   5   20951.   21582.    1650. o
       681    1   5  25   1   20951.   21582.    1650. o
       682    2  -1 -25  -5   21654.   24300.    1104. o
       682    1  -5  25  -1   21654.   24300.    1104. o
       683    2   1 -25   7    9181.    9139.     826. o
       683    1   7  25   1    9181.    9139.     826. o
       684    2  -1 -25  -7    9304.   12256.    1272. o
       684    1  -7  25  -1    9304.   12256.    1272. o
       685    1  -8  26   1      38.     506.     959. <
       686    1   8  26  -1      37.    -107.     799. <
       687    1  -6  26   1    1361.    2718.     692. o
       688    1   6  26  -1    1392.    2425.    1438. <
       689    1  -4  26   1    3105.    5222.     635. o
       690    1   4  26  -1    3063.    2744.    1146. o
       691    1  -2  26   1    7277.    7221.     879. o
       692    1   2  26  -1    7311.    1865.    1629. <
       693    1   2  26   1    7311.    5302.    1494. o
       694    1  -2  26  -1    7277.    7460.    1039. o
       695    1   4  26   1    3063.    2078.    1173. <
       696    1  -4  26  -1    3105.    4103.     745. o
       697    1   6  26   1    1392.    1705.    1012. <
       698    1  -6  26  -1    1361.    2291.    1012. o
       699    1   8  26   1      37.     986.     826. <
       700    1  -8  26  -1      38.     320.    1146. <
       701    2   1 -27  -7    1774.    1652.     879. <
       701    1  -7  27   1    1774.    1652.     879. <
       702    2  -1 -27   7    1945.    2078.    1012. o
       702    1   7  27  -1    1945.    2078.    1012. o
       703    2   1 -27  -5    3393.    4103.     692. o
       703    1  -5  27   1    3393.    4103.     692. o
       704    2  -1 -27   5    3204.    5116.    1491. o
       704    1   5  27  -1    3204.    5116.    1491. o
       705    2   1 -27  -3    2845.    2371.     773. o
       705    1  -3  27   1    2845.    2371.     773. o
       706    2  -1 -27   3    2721.     906.    1413. <
       706    1   3  27  -1    2721.     906.    1413. <
       707    2   1 -27  -1    3899.    2158.    1120. <
       707    1  -1  27   1    3899.    2158.    1120. <
       708    2  -1 -27   1    3905.    2105.    2132. <
       708    1   1  27  -1    3905.    2105.    2132. <
       709    2   1 -27   1    3920.     639.    1493. <
       709    1   1  27   1    3920.     639.    1493. <
       710    2  -1 -27  -1    3884.     853.    1041. <
       710    1  -1  27  -1    3884.     853.    1041. <
       711    2   1 -27   3    2706.    1599.    1732. <
       711    1   3  27   1    2706.    1599.    1732. <
       712    2  -1 -27  -3    2860.    1439.     880. <
       712    1  -3  27  -1    2860.    1439.     880. <
       713    2   1 -27   5    3262.    3570.    1092. o
       713    1   5  27   1    3262.    3570.    1092. o
       714    2  -1 -27  -5    3336.    3091.     773. o
       714    1  -5  27  -1    3336.    3091.     773. o
       715    2   1 -27   7    1785.    2904.    1012. o
       715    1   7  27   1    1785.    2904.    1012. o
       716    2  -1 -27  -7    1934.    2158.    1092. <
       716    1  -7  27  -1    1934.    2158.    1092. <
       717    1  -8  28   1     614.    1012.    1066. <
       718    1   8  28  -1     610.     719.     986. <
       719    1  -6  28   1    1812.    3810.     610. o
       720    1   6  28  -1    1828.    2132.    1092. <
       721    1  -4  28   1    1769.    5915.     954. o
       722    1   4  28  -1    1744.    3037.    1758. <
       723    1  -2  28   1    3753.    5649.     850. o
       724    1   2  28  -1    3829.    2371.    1280. <
       725    1   2  28   1    3829.    3277.    1040. o
       726    1  -2  28  -1    3753.    3704.     826. o
       727    1   4  28   1    1744.    4503.    1250. o
       728    1  -4  28  -1    1769.    8500.     839. o
       729    1   6  28   1    1828.    2451.    1598. <
       730    1  -6  28  -1    1812.    2531.     905. o
       731    1   8  28   1     610.     346.     853. <
       732    1  -8  28  -1     614.    1092.    1332. <
       733    2   1 -29  -7   45842.   45509.     884. o
       733    1  -7  29   1   45842.   45509.     884. o
       734    2  -1 -29   7   44904.   31281.    1501. o
       734    1   7  29  -1   44904.   31281.    1501. o
       735    2   1 -29  -5   79584.   83797.    1033. o
       735    1  -5  29   1   79584.   83797.    1033. o
       736    2  -1 -29   5   82079.   78202.    1753. o
       736    1   5  29  -1   82079.   78202.    1753. o
       737    2   1 -29  -3  152064.  191787.    3796. o
       737    1  -3  29   1  152064.  191787.    3796. o
       738    2  -1 -29   3  150052.  163810.    2200. o
       738    1   3  29  -1  150052.  163810.    2200. o
       739    2   1 -29  -1  155255.  189496.    1086. o
       739    1  -1  29   1  155255.  189496.    1086. o
       740    2  -1 -29   1  154882.  192826.    3266. o
       740    1   1  29  -1  154882.  192826.    3266. o
       741    2   1 -29   1  153955.  186085.    1733. o
       741    1   1  29   1  153955.  186085.    1733. o
       742    2  -1 -29  -1  156182.  169326.    1684. o
       742    1  -1  29  -1  156182.  169326.    1684. o
       743    2   1 -29   3  152852.  173136.    2209. o
       743    1   3  29   1  152852.  173136.    2209. o
       744    2  -1 -29  -3  149264.  177292.     984. o
       744    1  -3  29  -1  149264.  177292.     984. o
       745    2   1 -29   5   80560.   80573.    1945. o
       745    1   5  29   1   80560.   80573.    1945. o
       746    2  -1 -29  -5   81103.   86594.    1178. o
       746    1  -5  29  -1   81103.   86594.    1178. o
       747    2   1 -29   7   45817.   37116.    1579. o
       747    1   7  29   1   45817.   37116.    1579. o
       748    2  -1 -29  -7   44929.   53236.    1499. o
       748    1  -7  29  -1   44929.   53236.    1499. o
       749    1  -8  30   1    1171.     613.     666. <
       750    1   8  30  -1    1184.    1519.    1492. <
       751    1  -6  30   1    2242.     -27.     534. <
       752    1   6  30  -1    2245.    1892.    1466. <
       753    1  -4  30   1    2995.    1838.     827. o
       754    1   4  30  -1    2931.    2478.    1199. o
       755    1  -2  30   1     945.    3597.     957. o
       756    1   2  30  -1     998.    2451.    1252. <
       757    1   2  30   1     998.     613.    1306. <
       758    1  -2  30  -1     944.    2211.     905. o
       759    1   4  30   1    2931.     560.    1173. <
       760    1  -4  30  -1    2995.    2904.     826. o
       761    1   6  30   1    2245.    -613.    1146. <
       762    1  -6  30  -1    2242.     560.     853. <
       763    1   8  30   1    1184.    -586.    1652. <
       764    1  -8  30  -1    1171.    1146.    1226. <
       765    2   1 -31  -7   12172.    6901.     762. o
       765    1  -7  31   1   12172.    6901.     762. o
       766    2  -1 -31   7   11882.    9779.    1151. o
       766    1   7  31  -1   11882.    9779.    1151. o
       767    2   1 -31  -5   30928.   32320.     893. o
       767    1  -5  31   1   30928.   32320.     893. o
       768    2  -1 -31   5   31836.   33092.    1806. o
       768    1   5  31  -1   31836.   33092.    1806. o
       769    2   1 -31  -3  110174.  118541.    1246. o
       769    1  -3  31   1  110174.  118541.    1246. o
       770    2  -1 -31   3  109908.  120726.    2394. o
       770    1   3  31  -1  109908.  120726.    2394. o
       771    2   1 -31  -1  169478.  198981.    1252. o
       771    1  -1  31   1  169478.  198981.    1252. o
       772    2  -1 -31   1  169367.  166928.    3152. o
       772    1   1  31  -1  169367.  166928.    3152. o
       773    2   1 -31   1  169091.  179584.    2124. o
       773    1   1  31   1  169091.  179584.    2124. o
       774    2  -1 -31  -1  169754.  171431.    1933. o
       774    1  -1  31  -1  169754.  171431.    1933. o
       775    2   1 -31   3  110420.  120380.    1807. o
       775    1   3  31   1  110420.  120380.    1807. o
       776    2  -1 -31  -3  109662.  115371.    1429. o
       776    1  -3  31  -1  109662.  115371.    1429. o
       777    2   1 -31   5   31381.   27044.    1567. o
       777    1   5  31   1   31381.   27044.    1567. o
       778    2  -1 -31  -5   31384.   30828.    1017. o
       778    1  -5  31  -1   31384.   30828.    1017. o
       779    2   1 -31   7   12102.    8553.    1658. o
       779    1   7  31   1   12102.    8553.    1658. o
       780    2  -1 -31  -7   11951.   12390.     958. o
       780    1  -7  31  -1   11951.   12390.     958. o
       781    1  -8  32   1     314.     426.     719. <
       782    1   8  32  -1     319.    -986.    1039. <
       783    1  -6  32   1    1103.     506.     879. <
       784    1   6  32  -1    1148.    -533.     959. <
       785    1  -4  32   1    2525.    1359.     960. <
       786    1   4  32  -1    2377.    -639.    1625. <
       787    1  -2  32   1    5467.     453.    1201. <
       788    1   2  32  -1    5800.    1492.    1681. <
       789    1   2  32   1    5800.     480.     936. <
       790    1  -2  32  -1    5467.     986.     936. <
       791    1   4  32   1    2377.    -320.    1119. <
       792    1  -4  32  -1    2525.    1545.     853. <
       793    1   6  32   1    1147.    1572.    1146. <
       794    1  -6  32  -1    1103.     560.     986. <
       795    1   8  32   1     319.    -400.    1199. <
       796    1  -8  32  -1     314.     506.     906. <
       797    2   1 -33  -7    3481.    2105.     880. o
       797    1  -7  33   1    3481.    2105.     880. o
       798    2  -1 -33   7    3876.    3757.    1545. o
       798    1   7  33  -1    3876.    3757.    1545. o
       799    2   1 -33  -5    5858.    6928.    1011. o
       799    1  -5  33   1    5858.    6928.    1011. o
       800    2  -1 -33   5    5504.    8207.    1729. o
       800    1   5  33  -1    5504.    8207.    1729. o
       801    2   1 -33  -3    5413.    7754.    1062. o
       801    1  -3  33   1    5413.    7754.    1062. o
       802    2  -1 -33   3    5706.    6368.    1785. o
       802    1   3  33  -1    5706.    6368.    1785. o
       803    2   1 -33  -1   15402.   18411.    1107. o
       803    1  -1  33   1   15402.   18411.    1107. o
       804    2  -1 -33   1   15388.   18065.    1992. o
       804    1   1  33  -1   15388.   18065.    1992. o
       805    2   1 -33   1   15354.   17266.    1111. o
       805    1   1  33   1   15354.   17266.    1111. o
       806    2  -1 -33  -1   15435.   16306.    1089. o
       806    1  -1  33  -1   15435.   16306.    1089. o
       807    2   1 -33   3    5577.    5942.    1492. o
       807    1   3  33   1    5577.    5942.    1492. o
       808    2  -1 -33  -3    5542.    6608.     931. o
       808    1  -3  33  -1    5542.    6608.     931. o
       809    2   1 -33   5    5769.    5968.    1305. o
       809    1   5  33   1    5769.    5968.    1305. o
       810    2  -1 -33  -5    5592.    6421.     824. o
       810    1  -5  33  -1    5592.    6421.     824. o
       811    2   1 -33   7    3725.    3011.    1679. <
       811    1   7  33   1    3725.    3011.    1679. <
       812    2  -1 -33  -7    3631.    2238.     960. o
       812    1  -7  33  -1    3631.    2238.     960. o
       813    1  -6  34   1    1077.    2078.     879. o
       814    1   6  34  -1    1097.    2718.    1118. o
       815    1  -4  34   1    2397.    2052.     879. o
       816    1   4  34  -1    2329.    3277.    1678. <
       817    1  -2  34   1    2273.    1012.    1120. <
       818    1   2  34  -1    2342.    2371.    1732. <
       819    1   2  34   1    2342.    1332.     960. <
       820    1  -2  34  -1    2273.    1412.     906. <
       821    1   4  34   1    2330.    1972.    1519. <
       822    1  -4  34  -1    2397.    4450.     984. o
       823    1   6  34   1    1097.    2531.    1332. <
       824    1  -6  34  -1    1077.    1252.     986. <
       825    2   1 -35  -7    2206.    3624.    1118. o
       825    1  -7  35   1    2206.    3624.    1118. o
       826    2  -1 -35   7    2017.    3437.    1145. o
       826    1   7  35  -1    2017.    3437.    1145. o
       827    2   1 -35  -5    4614.    6661.    1063. o
       827    1  -5  35   1    4614.    6661.    1063. o
       828    2  -1 -35   5    5289.    3091.    1281. o
       828    1   5  35  -1    5289.    3091.    1281. o
       829    2   1 -35  -3   16136.   20756.    1016. o
       829    1  -3  35   1   16136.   20756.    1016. o
       830    2  -1 -35   3   16855.   10551.    1401. o
       830    1   3  35  -1   16855.   10551.    1401. o
       831    2   1 -35  -1   16840.   23527.    1112. o
       831    1  -1  35   1   16840.   23527.    1112. o
       832    2  -1 -35   1   16990.   21076.    1800. o
       832    1   1  35  -1   16990.   21076.    1800. o
       833    2   1 -35   1   17362.   17958.    1117. o
       833    1   1  35   1   17362.   17958.    1117. o
       834    2  -1 -35  -1   16467.   21209.     960. o
       834    1  -1  35  -1   16467.   21209.     960. o
       835    2   1 -35   3   17042.   17639.    1464. o
       835    1   3  35   1   17042.   17639.    1464. o
       836    2  -1 -35  -3   15950.   19370.    1050. o
       836    1  -3  35  -1   15950.   19370.    1050. o
       837    2   1 -35   5    4982.    3863.    1120. o
       837    1   5  35   1    4982.    3863.    1120. o
       838    2  -1 -35  -5    4921.    4556.     906. o
       838    1  -5  35  -1    4921.    4556.     906. o
       839    2   1 -35   7    2108.    1625.    1785. <
       839    1   7  35   1    2108.    1625.    1785. <
       840    2  -1 -35  -7    2115.    2505.     879. o
       840    1  -7  35  -1    2115.    2505.     879. o
       841    1  -6  36   1    1096.    -879.     773. <
       842    1   6  36  -1    1064.     373.    1625. <
       843    1  -4  36   1    2548.    1625.     747. o
       844    1   4  36  -1    2635.     426.    1279. <
       845    1  -2  36   1    1745.     -27.    1173. <
       846    1   2  36  -1    1711.     853.    1093. <
       847    1   2  36   1    1711.    1172.    1306. <
       848    1  -2  36  -1    1745.     746.    1013. <
       849    1   4  36   1    2635.    1492.    1413. <
       850    1  -4  36  -1    2548.    1972.     933. o
       851    1   6  36   1    1064.      80.    1199. <
       852    1  -6  36  -1    1096.    1252.     906. <
       853    2   1 -37  -7   16380.   16280.    1253. o
       853    1  -7  37   1   16380.   16280.    1253. o
       854    2  -1 -37   7   15368.   10498.    1344. o
       854    1   7  37  -1   15368.   10498.    1344. o
       855    2   1 -37  -5   29448.   35331.    1155. o
       855    1  -5  37   1   29448.   35331.    1155. o
       856    2  -1 -37   5   30059.   28456.    1580. o
       856    1   5  37  -1   30059.   28456.    1580. o
       857    2   1 -37  -3   64237.   76123.    1449. o
       857    1  -3  37   1   64237.   76123.    1449. o
       858    2  -1 -37   3   63580.   70714.    2152. o
       858    1   3  37  -1   63580.   70714.    2152. o
       859    2   1 -37  -1   76512.   89952.    1239. o
       859    1  -1  37   1   76512.   89952.    1239. o
       860    2  -1 -37   1   76366.   74178.    2284. o
       860    1   1  37  -1   76366.   74178.    2284. o
       861    2   1 -37   1   76003.   77695.    1577. o
       861    1   1  37   1   76003.   77695.    1577. o
       862    2  -1 -37  -1   76875.   70768.    1519. o
       862    1  -1  37  -1   76875.   70768.    1519. o
       863    2   1 -37   3   63718.   38262.    1552. o
       863    1   3  37   1   63718.   38262.    1552. o
       864    2  -1 -37  -3   64099.   69542.    1200. o
       864    1  -3  37  -1   64099.   69542.    1200. o
       865    2   1 -37   5   29378.   24593.    1305. o
       865    1   5  37   1   29378.   24593.    1305. o
       866    2  -1 -37  -5   30129.   31121.    1165. o
       866    1  -5  37  -1   30129.   31121.    1165. o
       867    2   1 -37   7   15833.   11830.    1952. o
       867    1   7  37   1   15833.   11830.    1952. o
       868    2  -1 -37  -7   15915.   16626.    1223. o
       868    1  -7  37  -1   15915.   16626.    1223. o
       869    1  -6  38   1    1228.     933.     933. <
       870    1   6  38  -1    1212.     986.    1812. <
       871    1  -4  38   1    1049.    1865.    1012. <
       872    1   4  38  -1    1088.    -320.    1252. <
       873    1  -2  38   1    4384.     426.    1014. <
       874    1   2  38  -1    4298.    1066.    1094. <
       875    1   2  38   1    4298.    2505.    1280. <
       876    1  -2  38  -1    4384.    2238.     908. o
       877    1   4  38   1    1088.    1226.     933. <
       878    1  -4  38  -1    1049.    2478.    1065. o
       879    1   6  38   1    1212.    3277.    1171. o
       880    1  -6  38  -1    1228.    1066.    1092. <
       881    2   1 -39  -7    1124.    1306.     719. <
       881    1  -7  39   1    1124.    1306.     719. <
       882    2  -1 -39   7     923.    2078.    1279. <
       882    1   7  39  -1     923.    2078.    1279. <
       883    2   1 -39  -5     617.     613.     799. <
       883    1  -5  39   1     617.     613.     799. <
       884    2  -1 -39   5     462.     826.    1306. <
       884    1   5  39  -1     462.     826.    1306. <
       885    2   1 -39  -3    1845.    2105.     826. o
       885    1  -3  39   1    1845.    2105.     826. o
       886    2  -1 -39   3    1437.    2718.    1518. <
       886    1   3  39  -1    1437.    2718.    1518. <
       887    2   1 -39  -1    9455.    7594.     884. o
       887    1  -1  39   1    9455.    7594.     884. o
       888    2  -1 -39   1    9378.    6208.    1151. o
       888    1   1  39  -1    9378.    6208.    1151. o
       889    2   1 -39   1    9190.    7780.    1122. o
       889    1   1  39   1    9190.    7780.    1122. o
       890    2  -1 -39  -1    9643.    6555.     913. o
       890    1  -1  39  -1    9643.    6555.     913. o
       891    2   1 -39   3    1434.    2291.     905. o
       891    1   3  39   1    1434.    2291.     905. o
       892    2  -1 -39  -3    1849.    1545.     746. o
       892    1  -3  39  -1    1849.    1545.     746. o
       893    2   1 -39   5     403.    1812.    1065. <
       893    1   5  39   1     403.    1812.    1065. <
       894    2  -1 -39  -5     676.    1039.     879. <
       894    1  -5  39  -1     676.    1039.     879. <
       895    2   1 -39   7     948.    2638.    1678. <
       895    1   7  39   1     948.    2638.    1678. <
       896    2  -1 -39  -7    1099.     506.     853. <
       896    1  -7  39  -1    1099.     506.     853. <
       897    1  -6  40   1     979.     933.     826. <
       898    1   6  40  -1     950.    4609.    1837. o
       899    1  -4  40   1    1720.    1332.     906. <
       900    1   4  40  -1    1793.    1386.    1652. <
       901    1  -2  40   1    1312.    -133.    1093. <
       902    1   2  40  -1    1238.       0.    1386. <
       903    1   2  40   1    1238.    1625.    1252. <
       904    1  -2  40  -1    1312.     799.     986. <
       905    1   4  40   1    1793.    1652.    1359. <
       906    1  -4  40  -1    1720.     693.     959. <
       907    1   6  40   1     950.    1652.    1119. <
       908    1  -6  40  -1     979.    1092.    1066. <
       909    2   1 -41  -5    5504.    7114.     769. o
       909    1  -5  41   1    5504.    7114.     769. o
       910    2  -1 -41   5    5407.    4983.    1199. o
       910    1   5  41  -1    5407.    4983.    1199. o
       911    2   1 -41  -3    2566.    4290.     984. o
       911    1  -3  41   1    2566.    4290.     984. o
       912    2  -1 -41   3    2730.    2958.    1492. <
       912    1   3  41  -1    2730.    2958.    1492. <
       913    2   1 -41  -1    2181.    1865.     933. <
       913    1  -1  41   1    2181.    1865.     933. <
       914    2  -1 -41   1    2195.     879.    1492. <
       914    1   1  41  -1    2195.     879.    1492. <
       915    2   1 -41   1    2229.    3037.     985. o
       915    1   1  41   1    2229.    3037.     985. o
       916    2  -1 -41  -1    2146.     986.     960. <
       916    1  -1  41  -1    2146.     986.     960. <
       917    2   1 -41   3    2711.    2052.    1386. <
       917    1   3  41   1    2711.    2052.    1386. <
       918    2  -1 -41  -3    2585.    2531.     933. o
       918    1  -3  41  -1    2585.    2531.     933. o
       919    2   1 -41   5    5451.    5356.    1519. o
       919    1   5  41   1    5451.    5356.    1519. o
       920    2  -1 -41  -5    5460.    7860.    1062. o
       920    1  -5  41  -1    5460.    7860.    1062. o
       921    1  -6  42   1     913.     799.     719. <
       922    1   6  42  -1     896.     693.    1705. <
       923    1  -4  42   1    1137.      80.     746. <
       924    1   4  42  -1    1165.    -346.    1545. <
       925    1  -2  42   1    2954.     773.     933. <
       926    1   2  42  -1    2910.     773.    1013. <
       927    1   2  42   1    2910.    2558.    1252. o
       928    1  -2  42  -1    2954.     879.     827. <
       929    1   4  42   1    1165.     346.     879. <
       930    1  -4  42  -1    1137.     -53.     933. <
       931    1   6  42   1     896.    2158.    1092. <
       932    1  -6  42  -1     913.     107.    1039. <
       933    2   1 -43  -5    8698.    9832.     823. o
       933    1  -5  43   1    8698.    9832.     823. o
       934    2  -1 -43   5    8949.    7301.    1255. o
       934    1   5  43  -1    8949.    7301.    1255. o
       935    2   1 -43  -3   15338.   20623.    1285. o
       935    1  -3  43   1   15338.   20623.    1285. o
       936    2  -1 -43   3   14792.   11697.    1181. o
       936    1   3  43  -1   14792.   11697.    1181. o
       937    2   1 -43  -1   13481.   15667.     923. o
       937    1  -1  43   1   13481.   15667.     923. o
       938    2  -1 -43   1   13375.   12203.    1734. o
       938    1   1  43  -1   13375.   12203.    1734. o
       939    2   1 -43   1   13114.   13615.    1037. o
       939    1   1  43   1   13114.   13615.    1037. o
       940    2  -1 -43  -1   13743.   14974.    1008. o
       940    1  -1  43  -1   13743.   14974.    1008. o
       941    2   1 -43   3   14803.   10471.    1079. o
       941    1   3  43   1   14803.   10471.    1079. o
       942    2  -1 -43  -3   15328.   15294.     933. o
       942    1  -3  43  -1   15328.   15294.     933. o
       943    2   1 -43   5    8909.    5435.    1125. o
       943    1   5  43   1    8909.    5435.    1125. o
       944    2  -1 -43  -5    8738.    7967.    1121. o
       944    1  -5  43  -1    8738.    7967.    1121. o
       945    1  -6  44   1     930.     826.     879. <
       946    1   6  44  -1     881.     959.    1599. <
       947    1  -4  44   1     743.    1306.     879. <
       948    1   4  44  -1     783.     506.    1519. <
       949    1  -2  44   1    1893.    1252.     933. <
       950    1   2  44  -1    1863.     -27.    1412. <
       951    1   2  44   1    1863.    1732.    1199. <
       952    1  -2  44  -1    1893.     746.     773. <
       953    1   4  44   1     783.     213.    1359. <
       954    1  -4  44  -1     743.     719.     879. <
       955    1   6  44   1     881.    -453.    1519. <
       956    1  -6  44  -1     930.     746.    1119. <
       957    2   1 -45  -5   16529.   16813.    1011. o
       957    1  -5  45   1   16529.   16813.    1011. o
       958    2  -1 -45   5   17015.   16893.    1785. o
       958    1   5  45  -1   17015.   16893.    1785. o
       959    2   1 -45  -3   33068.   41139.    1324. o
       959    1  -3  45   1   33068.   41139.    1324. o
       960    2  -1 -45   3   33141.   41406.    1709. o
       960    1   3  45  -1   33141.   41406.    1709. o
       961    2   1 -45  -1   41488.   33679.    1109. o
       961    1  -1  45   1   41488.   33679.    1109. o
       962    2  -1 -45   1   41555.   45242.    2004. o
       962    1   1  45  -1   41555.   45242.    2004. o
       963    2   1 -45   1   41723.   34052.    1311. o
       963    1   1  45   1   41723.   34052.    1311. o
       964    2  -1 -45  -1   41320.   29016.    1066. o
       964    1  -1  45  -1   41320.   29016.    1066. o
       965    2   1 -45   3   33243.   31680.    1237. o
       965    1   3  45   1   33243.   31680.    1237. o
       966    2  -1 -45  -3   32966.   31973.    1100. o
       966    1  -3  45  -1   32966.   31973.    1100. o
       967    2   1 -45   5   16946.   17665.    1490. o
       967    1   5  45   1   16946.   17665.    1490. o
       968    2  -1 -45  -5   16598.   16120.    1201. o
       968    1  -5  45  -1   16598.   16120.    1201. o
       969    1  -4  46   1    1091.     213.     773. <
       970    1   4  46  -1    1105.    -480.    1066. <
       971    1  -2  46   1     922.     426.     853. <
       972    1   2  46  -1     929.     906.     986. <
       973    1   2  46   1     929.    1146.    1226. <
       974    1  -2  46  -1     922.     187.     853. <
       975    1   4  46   1    1105.     107.     933. <
       976    1  -4  46  -1    1091.     533.     959. <
       977    2   1 -47  -5     256.     426.     773. <
       977    1  -5  47   1     256.     426.     773. <
       978    2  -1 -47   5     371.    2505.    1545. <
       978    1   5  47  -1     371.    2505.    1545. <
       979    2   1 -47  -3    2252.    2824.     825. o
       979    1  -3  47   1    2252.    2824.     825. o
       980    2  -1 -47   3    2456.     639.    1066. <
       980    1   3  47  -1    2456.     639.    1066. <
       981    2   1 -47  -1    3862.    1865.     642. o
       981    1  -1  47   1    3862.    1865.     642. o
       982    2  -1 -47   1    3894.    4636.    1492. o
       982    1   1  47  -1    3894.    4636.    1492. o
       983    2   1 -47   1    3974.    4583.    1038. o
       983    1   1  47   1    3974.    4583.    1038. o
       984    2  -1 -47  -1    3782.    3784.     959. o
       984    1  -1  47  -1    3782.    3784.     959. o
       985    2   1 -47   3    2510.    2078.    1199. <
       985    1   3  47   1    2510.    2078.    1199. <
       986    2  -1 -47  -3    2198.    2238.     959. o
       986    1  -3  47  -1    2198.    2238.     959. o
       987    2   1 -47   5     378.    2052.     985. o
       987    1   5  47   1     378.    2052.     985. o
       988    2  -1 -47  -5     249.     -53.    1092. <
       988    1  -5  47  -1     249.     -53.    1092. <
       989    1  -4  48   1     691.     320.     906. <
       990    1   4  48  -1     688.     240.    1439. <
       991    1  -2  48   1    1494.    1306.    1013. <
       992    1   2  48  -1    1510.    -666.    1279. <
       993    1   2  48   1    1510.    -133.    1226. <
       994    1  -2  48  -1    1494.     373.     800. <
       995    1   4  48   1     688.      53.    1306. <
       996    1  -4  48  -1     691.     320.     906. <
       997    2   1 -49  -3     131.     719.     853. <
       997    1  -3  49   1     131.     719.     853. <
       998    2  -1 -49   3     137.    2052.    1412. <
       998    1   3  49  -1     137.    2052.    1412. <
       999    2   1 -49  -1      77.     293.     746. <
       999    1  -1  49   1      77.     293.     746. <
      1000    2  -1 -49   1      74.    2291.    1491. <
      1000    1   1  49  -1      74.    2291.    1491. <
      1001    2   1 -49   1      69.     959.     852. <
      1001    1   1  49   1      69.     959.     852. <
      1002    2  -1 -49  -1      82.     -27.     773. <
      1002    1  -1  49  -1      82.     -27.     773. <
      1003    2   1 -49   3     141.     799.    1332. <
      1003    1   3  49   1     141.     799.    1332. <
      1004    2  -1 -49  -3     127.     373.     906. <
      1004    1  -3  49  -1     127.     373.     906. <
      1005    1  -4  50   1     657.     453.     906. <
      1006    1   4  50  -1     674.    -293.    1039. <
      1007    1  -2  50   1     586.     853.    1012. <
      1008    1   2  50  -1     574.    1386.    1332. <
      1009    1   2  50   1     574.    1012.    1226. <
      1010    1  -2  50  -1     586.     -53.     746. <
      1011    1   4  50   1     674.    -506.    1252. <
      1012    1  -4  50  -1     657.      53.     959. <
      1013    2   1 -51  -3   15041.   16386.     926. o
      1013    1  -3  51   1   15041.   16386.     926. o
      1014    2  -1 -51   3   15169.    6235.    1139. o
      1014    1   3  51  -1   15169.    6235.    1139. o
      1015    2   1 -51  -1   20431.   22728.    1671. o
      1015    1  -1  51   1   20431.   22728.    1671. o
      1016    2  -1 -51   1   20501.   22621.    1832. o
      1016    1   1  51  -1   20501.   22621.    1832. o
      1017    2   1 -51   1   20675.   14068.    1118. o
      1017    1   1  51   1   20675.   14068.    1118. o
      1018    2  -1 -51  -1   20257.   21635.    1139. o
      1018    1  -1  51  -1   20257.   21635.    1139. o
      1019    2   1 -51   3   15116.   13189.    1364. o
      1019    1   3  51   1   15116.   13189.    1364. o
      1020    2  -1 -51  -3   15094.   12097.    1049. o
      1020    1  -3  51  -1   15094.   12097.    1049. o
      1021    1  -2  52   1     825.      80.     853. <
      1022    1   2  52  -1     799.    1599.    1332. <
      1023    1   2  52   1     799.     533.    1199. <
      1024    1  -2  52  -1     825.    -160.     746. <
      1025    2   1 -53  -1    1702.    1865.    1439. <
      1025    1  -1  53   1    1702.    1865.    1439. <
      1026    2  -1 -53   1    1678.    1945.    1492. <
      1026    1   1  53  -1    1678.    1945.    1492. <
      1027    2   1 -53   1    1619.    1892.    1012. <
      1027    1   1  53   1    1619.    1892.    1012. <
      1028    2  -1 -53  -1    1762.     746.     853. <
      1028    1  -1  53  -1    1762.     746.     853. <
      1029    1  -2  54   1     756.     293.     799. <
      1030    1   2  54  -1     743.    -746.    1199. <
      1031    1   2  54   1     743.     -80.    1226. <
      1032    1  -2  54  -1     756.     693.     693. <
      1033    2   1 -55  -1    3945.    4130.    1412. o
      1033    1  -1  55   1    3945.    4130.    1412. o
      1034    2  -1 -55   1    3929.    2505.     881. o
      1034    1   1  55  -1    3929.    2505.     881. o
      1035    2   1 -55   1    3887.    2931.     960. o
      1035    1   1  55   1    3887.    2931.     960. o
      1036    2  -1 -55  -1    3987.    1892.     961. <
      1036    1  -1  55  -1    3987.    1892.     961. <
      1037    2   2   0  -8   31973.   38475.    1367. o
      1037    1  -8   0   2   31973.   38475.    1367. o
      1038    2  -2   0   8   32818.   35197.    1289. o
      1038    1   8   0  -2   32818.   35197.    1289. o
      1039    2   2   0  -6  367949.  405742.    8021. o
      1039    1  -6   0   2  367949.  405742.    8021. o
      1040    2  -2   0   6  364622.  391647.     944. o
      1040    1   6   0  -2  364622.  391647.     944. o
      1041    2   2   0  -4  174283.  177452.    1783. o
      1041    1  -4   0   2  174283.  177452.    1783. o
      1042    2  -2   0   4  180385.  173322.    1962. o
      1042    1   4   0  -2  180385.  173322.    1962. o
      1043    2  -2   0   2 2800660. 2664450.   16005. o
      1043    1   2   0  -2 2800660. 2664450.   16005. o
      1044    2   2   0   0  544469.  558894.    5315. o
      1044    1   0   0   2  544469.  558894.    5315. o
      1045    2  -2   0   0  546886.  548423.    5125. o
      1045    1   0   0  -2  546886.  548423.    5125. o
      1046    2   2   0   2 2793610. 2492720.   23318. o
      1046    1   2   0   2 2793610. 2492720.   23318. o
      1047    2  -2   0  -2 2810540. 2495520.   25436. o
      1047    1  -2   0  -2 2810540. 2495520.   25436. o
      1048    2   2   0   4  184740.  169672.    2485. o
      1048    1   4   0   2  184740.  169672.    2485. o
      1049    2  -2   0  -4  169928.  171137.    2966. o
      1049    1  -4   0  -2  169928.  171137.    2966. o
      1050    2   2   0   6  364612.  382055.    1971. o
      1050    1   6   0   2  364612.  382055.    1971. o
      1051    2  -2   0  -6  367959.  384133.    3293. o
      1051    1  -6   0  -2  367959.  384133.    3293. o
      1052    2   2   0   8   31954.   31760.    1121. o
      1052    1   8   0   2   31954.   31760.    1121. o
      1053    2  -2   0  -8   32838.   29229.    1485. o
      1053    1  -8   0  -2   32838.   29229.    1485. o
      1054    1  -9   1   2     435.    -266.     826. <
      1055    1   9   1  -2     449.     799.     693. <
      1056    1  -7   1   2     389.     666.     773. <
      1057    1   7   1  -2     350.     719.     773. <
      1058    1  -5   1   2    1756.     320.     693. <
      1059    1   5   1  -2    1831.    1119.     640. <
      1060    1  -3   1   2    3261.    7407.     791. o
      1061    1   3   1  -2    3058.    4823.     583. o
      1062    1  -1   1   2   14018.    4796.     772. o
      1063    1   1   1  -2   14274.    5942.     927. o
      1064    1   1   1   2   14274.    5435.    2061. o
      1065    1  -1   1  -2   14018.    8553.    1582. o
      1066    1   3   1   2    3058.    9858.    1053. o
      1067    1  -3   1  -2    3261.    6048.    1276. o
      1068    1   5   1   2    1831.     320.     693. <
      1069    1  -5   1  -2    1756.    -773.     959. <
      1070    1   7   1   2     350.     639.     693. <
      1071    1  -7   1  -2     389.      80.     879. <
      1072    1   9   1   2     449.     506.     560. <
      1073    1  -9   1  -2     435.     586.     879. <
      1074    2   2  -2  -8   11157.   14654.     702. o
      1074    1  -8   2   2   11157.   14654.     702. o
      1075    2  -2  -2   8   11977.   15560.     809. o
      1075    1   8   2  -2   11977.   15560.     809. o
      1076    2   2  -2  -6    8867.   10578.     632. o
      1076    1  -6   2   2    8867.   10578.     632. o
      1077    2  -2  -2   6    8092.    9858.     740. o
      1077    1   6   2  -2    8092.    9858.     740. o
      1078    2   2  -2  -4   38354.   39940.     751. o
      1078    1  -4   2   2   38354.   39940.     751. o
      1079    2  -2  -2   4   41120.   39540.     872. o
      1079    1   4   2  -2   41120.   39540.     872. o
      1080    2   2  -2  -2   66958.   73938.    1082. o
      1080    1  -2   2   2   66958.   73938.    1082. o
      1081    2  -2  -2   2   66579.   72606.    1100. o
      1081    1   2   2  -2   66579.   72606.    1100. o
      1082    2   2  -2   0    8105.    6155.     989. o
      1082    1   0   2   2    8105.    6155.     989. o
      1083    2  -2  -2   0    5539.    6555.    1704. o
      1083    1   0   2  -2    5539.    6555.    1704. o
      1084    2   2  -2   2   65636.   63281.    1808. o
      1084    1   2   2   2   65636.   63281.    1808. o
      1085    2  -2  -2  -2   67900.   67011.    2750. o
      1085    1  -2   2  -2   67900.   67011.    2750. o
      1086    2   2  -2   4   42629.   39380.    1047. o
      1086    1   4   2   2   42629.   39380.    1047. o
      1087    2  -2  -2  -4   36846.   37489.    1140. o
      1087    1  -4   2  -2   36846.   37489.    1140. o
      1088    2   2  -2   6    8085.    7594.     907. o
      1088    1   6   2   2    8085.    7594.     907. o
      1089    2  -2  -2  -6    8874.    5462.    1124. o
      1089    1  -6   2  -2    8874.    5462.    1124. o
      1090    2   2  -2   8   11931.   12843.     796. o
      1090    1   8   2   2   11931.   12843.     796. o
      1091    2  -2  -2  -8   11203.   11510.    1145. o
      1091    1  -8   2  -2   11203.   11510.    1145. o
      1092    1  -9   3   2     141.    1679.     932. <
      1093    1   9   3  -2     136.    2078.     718. o
      1094    1  -7   3   2     279.     480.     746. <
      1095    1   7   3  -2     287.    1012.     746. <
      1096    1  -5   3   2     311.    6288.     737. o
      1097    1   5   3  -2     323.    5462.     550. o
      1098    1  -3   3   2    3629.    5489.     796. o
      1099    1   3   3  -2    3616.    4556.     691. o
      1100    1  -1   3   2   17948.    7487.     837. o
      1101    1   1   3  -2   17331.   10684.     983. o
      1102    1   1   3   2   17331.   11137.    2221. o
      1103    1  -1   3  -2   17948.   13349.    1689. o
      1104    1   3   3   2    3616.    5649.     876. o
      1105    1  -3   3  -2    3629.    6981.    1408. o
      1106    1   5   3   2     323.    5249.     767. o
      1107    1  -5   3  -2     311.    5036.    1195. o
      1108    1   7   3   2     287.     533.     586. <
      1109    1  -7   3  -2     279.    1146.     826. <
      1110    1   9   3   2     136.     560.     826. <
      1111    1  -9   3  -2     141.    1252.    1279. <
      1112    2   2  -4  -8    1396.    4130.     877. o
      1112    1  -8   4   2    1396.    4130.     877. o
      1113    2  -2  -4   8    2223.    4210.     690. o
      1113    1   8   4  -2    2223.    4210.     690. o
      1114    2   2  -4  -6  139108.  154458.     529. o
      1114    1  -6   4   2  139108.  154458.     529. o
      1115    2  -2  -4   6  139282.  149396.     806. o
      1115    1   6   4  -2  139282.  149396.     806. o
      1116    2   2  -4  -4    1604.    1759.     559. o
      1116    1  -4   4   2    1604.    1759.     559. o
      1117    2  -2  -4   4    1493.    1838.     639. o
      1117    1   4   4  -2    1493.    1838.     639. o
      1118    2   2  -4  -2  242177.  241079.    1746. o
      1118    1  -2   4   2  242177.  241079.    1746. o
      1119    2  -2  -4   2  243032.  244756.    1721. o
      1119    1   2   4  -2  243032.  244756.    1721. o
      1120    2   2  -4   0    1489.    1918.    1119. <
      1120    1   0   4   2    1489.    1918.    1119. <
      1121    2  -2  -4   0    2376.    1519.    1199. <
      1121    1   0   4  -2    2376.    1519.    1199. <
      1122    2   2  -4   2  245152.  235537.    2860. o
      1122    1   2   4   2  245152.  235537.    2860. o
      1123    2  -2  -4  -2  240057.  239267.    3425. o
      1123    1  -2   4  -2  240057.  239267.    3425. o
      1124    2   2  -4   4    1261.    1572.     879. <
      1124    1   4   4   2    1261.    1572.     879. <
      1125    2  -2  -4  -4    1836.    1119.    1146. <
      1125    1  -4   4  -2    1836.    1119.    1146. <
      1126    2   2  -4   6  138954.  151900.    1025. o
      1126    1   6   4   2  138954.  151900.    1025. o
      1127    2  -2  -4  -6  139435.  145932.    1552. o
      1127    1  -6   4  -2  139435.  145932.    1552. o
      1128    2   2  -4   8    2592.    2931.     719. o
      1128    1   8   4   2    2592.    2931.     719. o
      1129    2  -2  -4  -8    1028.    1625.    1092. <
      1129    1  -8   4  -2    1028.    1625.    1092. <
      1130    1  -9   5   2     463.    1652.     666. o
      1131    1   9   5  -2     465.    1119.     719. <
      1132    1  -7   5   2     769.    1012.     586. <
      1133    1   7   5  -2     806.    1279.     639. <
      1134    1  -5   5   2    1486.     293.     693. <
      1135    1   5   5  -2    1303.     453.     666. <
      1136    1  -3   5   2     421.    2558.     691. o
      1137    1   3   5  -2     427.    2132.     692. o
      1138    1  -1   5   2    9393.   12683.     705. o
      1139    1   1   5  -2   10117.   10205.    1012. o
      1140    1   1   5   2   10117.   15560.    2470. o
      1141    1  -1   5  -2    9393.   13882.    1723. o
      1142    1   3   5   2     427.    1119.     799. <
      1143    1  -3   5  -2     421.    1545.    1119. <
      1144    1   5   5   2    1303.     240.     586. <
      1145    1  -5   5  -2    1486.     107.     800. <
      1146    1   7   5   2     806.    2105.     692. o
      1147    1  -7   5  -2     769.    1012.     879. <
      1148    1   9   5   2     465.    -560.     853. <
      1149    1  -9   5  -2     463.      27.    1332. <
      1150    2   2  -6  -8    9149.   11137.     712. o
      1150    1  -8   6   2    9149.   11137.     712. o
      1151    2  -2  -6   8    9107.    9192.     826. o
      1151    1   8   6  -2    9107.    9192.     826. o
      1152    2   2  -6  -6   59100.   61229.     895. o
      1152    1  -6   6   2   59100.   61229.     895. o
      1153    2  -2  -6   6   56597.   60190.     898. o
      1153    1   6   6  -2   56597.   60190.     898. o
      1154    2   2  -6  -4   14130.   15081.     741. o
      1154    1  -4   6   2   14130.   15081.     741. o
      1155    2  -2  -6   4   16936.   14601.     706. o
      1155    1   4   6  -2   16936.   14601.     706. o
      1156    2   2  -6  -2  432033.  446535.    1443. o
      1156    1  -2   6   2  432033.  446535.    1443. o
      1157    2  -2  -6   2  430042.  440140.    1774. o
      1157    1   2   6  -2  430042.  440140.    1774. o
      1158    2   2  -6   0    7248.    1545.    1018. <
      1158    1   0   6   2    7248.    1545.    1018. <
      1159    2  -2  -6   0    2563.    1759.    1226. <
      1159    1   0   6  -2    2563.    1759.    1226. <
      1160    2   2  -6   2  425101.  419944.    3653. o
      1160    1   2   6   2  425101.  419944.    3653. o
      1161    2  -2  -6  -2  436975.  436410.    4703. o
      1161    1  -2   6  -2  436975.  436410.    4703. o
      1162    2   2  -6   4   17750.   12363.     980. o
      1162    1   4   6   2   17750.   12363.     980. o
      1163    2  -2  -6  -4   13316.   12630.     935. o
      1163    1  -4   6  -2   13316.   12630.     935. o
      1164    2   2  -6   6   56660.   57072.    1113. o
      1164    1   6   6   2   56660.   57072.    1113. o
      1165    2  -2  -6  -6   59036.   54994.    1326. o
      1165    1  -6   6  -2   59036.   54994.    1326. o
      1166    2   2  -6   8    8848.    7274.     671. o
      1166    1   8   6   2    8848.    7274.     671. o
      1167    2  -2  -6  -8    9409.    9166.    1093. o
      1167    1  -8   6  -2    9409.    9166.    1093. o
      1168    1  -9   7   2      12.    1306.     666. <
      1169    1   9   7  -2      12.    1306.     826. <
      1170    1  -7   7   2      25.    1732.     852. o
      1171    1   7   7  -2      29.    1545.     799. <
      1172    1  -5   7   2    1335.    8819.     702. o
      1173    1   5   7  -2    1320.    5782.     550. o
      1174    1  -3   7   2    1302.    7754.     733. o
      1175    1   3   7  -2    1680.    9006.     783. o
      1176    1  -1   7   2    6408.   17692.     716. o
      1177    1   1   7  -2    7645.   13402.    1076. o
      1178    1   1   7   2    7645.   17479.    2436. o
      1179    1  -1   7  -2    6408.   15694.    1714. o
      1180    1   3   7   2    1680.   13056.    1012. o
      1181    1  -3   7  -2    1302.   12150.    1448. o
      1182    1   5   7   2    1320.    6315.     684. o
      1183    1  -5   7  -2    1335.    5942.    1355. o
      1184    1   7   7   2      29.    1679.     825. o
      1185    1  -7   7  -2      25.     906.    1066. <
      1186    1   9   7   2      12.     693.     586. <
      1187    1  -9   7  -2      12.    1066.    1119. <
      1188    2   2  -8  -8   26101.   30801.     780. o
      1188    1  -8   8   2   26101.   30801.     780. o
      1189    2  -2  -8   8   26633.   31334.     779. o
      1189    1   8   8  -2   26633.   31334.     779. o
      1190    2   2  -8  -6  161663.  179770.     411. o
      1190    1  -6   8   2  161663.  179770.     411. o
      1191    2  -2  -8   6  156494.  164903.     805. o
      1191    1   6   8  -2  156494.  164903.     805. o
      1192    2   2  -8  -4   23391.   25712.     862. o
      1192    1  -4   8   2   23391.   25712.     862. o
      1193    2  -2  -8   4   28860.   23794.     841. o
      1193    1   4   8  -2   28860.   23794.     841. o
      1194    2   2  -8  -2  498781.  485329.    3044. o
      1194    1  -2   8   2  498781.  485329.    3044. o
      1195    2  -2  -8   2  495502.  482478.    3022. o
      1195    1   2   8  -2  495502.  482478.    3022. o
      1196    2   2  -8   0   47374.   45242.    1509. o
      1196    1   0   8   2   47374.   45242.    1509. o
      1197    2  -2  -8   0   37419.   46708.    1861. o
      1197    1   0   8  -2   37419.   46708.    1861. o
      1198    2   2  -8   2  487360.  491111.    3817. o
      1198    1   2   8   2  487360.  491111.    3817. o
      1199    2  -2  -8  -2  506923.  503607.    5386. o
      1199    1  -2   8  -2  506923.  503607.    5386. o
      1200    2   2  -8   4   30554.   21795.     943. o
      1200    1   4   8   2   30554.   21795.     943. o
      1201    2  -2  -8  -4   21697.   22435.    1195. o
      1201    1  -4   8  -2   21697.   22435.    1195. o
      1202    2   2  -8   6  156443.  168446.     970. o
      1202    1   6   8   2  156443.  168446.     970. o
      1203    2  -2  -8  -6  161715.  169086.    1885. o
      1203    1  -6   8  -2  161715.  169086.    1885. o
      1204    2   2  -8   8   26344.   27390.     978. o
      1204    1   8   8   2   26344.   27390.     978. o
      1205    2  -2  -8  -8   26390.   26351.    1066. o
      1205    1  -8   8  -2   26390.   26351.    1066. o
      1206    1  -9   9   2     837.    2052.     799. o
      1207    1   9   9  -2     806.    2078.     585. o
      1208    1  -7   9   2     455.     826.     746. <
      1209    1   7   9  -2     448.     666.     533. <
      1210    1  -5   9   2     927.   11910.     713. o
      1211    1   5   9  -2    1036.   11750.     686. o
      1212    1  -3   9   2    3289.    2904.     773. o
      1213    1   3   9  -2    2884.    1972.     773. o
      1214    1  -1   9   2    5353.   15880.     783. o
      1215    1   1   9   2    5031.   15640.    1820. o
      1216    1  -1   9  -2    5353.   11910.    2231. o
      1217    1   3   9   2    2884.    1172.     774. <
      1218    1  -3   9  -2    3290.     639.    1280. <
      1219    1   5   9   2    1036.   14228.     950. o
      1220    1  -5   9  -2     927.   13429.    1363. o
      1221    1   7   9   2     448.     480.     613. <
      1222    1  -7   9  -2     455.     933.    1039. <
      1223    1   9   9   2     806.    1892.     745. o
      1224    1  -9   9  -2     837.     213.    1306. <
      1225    2   2 -10  -8    1098.    4743.     929. o
      1225    1  -8  10   2    1098.    4743.     929. o
      1226    2  -2 -10   8    1513.    3091.     745. o
      1226    1   8  10  -2    1513.    3091.     745. o
      1227    2   2 -10  -6   61634.   75031.     795. o
      1227    1  -6  10   2   61634.   75031.     795. o
      1228    2  -2 -10   6   60996.   72420.     709. o
      1228    1   6  10  -2   60996.   72420.     709. o
      1229    2   2 -10  -4    1783.    2611.     665. o
      1229    1  -4  10   2    1783.    2611.     665. o
      1230    2  -2 -10   4    1658.    2878.     638. o
      1230    1   4  10  -2    1658.    2878.     638. o
      1231    2   2 -10  -2   41448.   43271.    1100. o
      1231    1  -2  10   2   41448.   43271.    1100. o
      1232    2  -2 -10   2   41696.   42018.    1570. o
      1232    1   2  10  -2   41696.   42018.    1570. o
      1233    2   2 -10   0    5306.    5196.     906. o
      1233    1   0  10   2    5306.    5196.     906. o
      1234    2  -2 -10   0    5764.    5515.    1199. o
      1234    1   0  10  -2    5764.    5515.    1199. o
      1235    2   2 -10   2   42314.   33466.    1549. o
      1235    1   2  10   2   42314.   33466.    1549. o
      1236    2  -2 -10  -2   40831.   34638.    2107. o
      1236    1  -2  10  -2   40831.   34638.    2107. o
      1237    2   2 -10   4    1768.    2558.     852. o
      1237    1   4  10   2    1768.    2558.     852. o
      1238    2  -2 -10  -4    1673.    1572.    1172. <
      1238    1  -4  10  -2    1673.    1572.    1172. <
      1239    2   2 -10   6   60977.   69356.    1008. o
      1239    1   6  10   2   60977.   69356.    1008. o
      1240    2  -2 -10  -6   61654.   71141.    1516. o
      1240    1  -6  10  -2   61654.   71141.    1516. o
      1241    2   2 -10   8    1628.    1918.     826. o
      1241    1   8  10   2    1628.    1918.     826. o
      1242    2  -2 -10  -8     983.    1492.     879. <
      1242    1  -8  10  -2     983.    1492.     879. <
      1243    1  -9  11   2      77.     826.     693. <
      1244    1   9  11  -2      80.     799.     613. <
      1245    1  -7  11   2     140.     133.     853. <
      1246    1   7  11  -2     109.    1226.     799. <
      1247    1  -5  11   2     772.     293.     586. <
      1248    1   5  11  -2     954.     426.     666. <
      1249    1  -3  11   2     110.    1705.     772. o
      1250    1   3  11  -2     219.    1892.     719. o
      1251    1  -1  11   2    6357.   10018.    1031. o
      1252    1   1  11   2    6754.    9992.    2715. o
      1253    1  -1  11  -2    6357.    7221.    2024. o
      1254    1   3  11   2     219.     426.     986. <
      1255    1  -3  11  -2     110.    1092.    1225. <
      1256    1   5  11   2     954.    1119.     719. <
      1257    1  -5  11  -2     772.     533.    1092. <
      1258    1   7  11   2     109.     746.     853. <
      1259    1  -7  11  -2     140.     586.    1252. <
      1260    1   9  11   2      80.    1039.     879. <
      1261    1  -9  11  -2      77.     266.    1146. <
      1262    2   2 -12  -8    1688.    1199.     720. <
      1262    1  -8  12   2    1688.    1199.     720. <
      1263    2  -2 -12   8    2390.    4316.     717. o
      1263    1   8  12  -2    2390.    4316.     717. o
      1264    2   2 -12  -6   28286.   29309.     843. o
      1264    1  -6  12   2   28286.   29309.     843. o
      1265    2  -2 -12   6   27532.   28350.     711. o
      1265    1   6  12  -2   27532.   28350.     711. o
      1266    2   2 -12  -4    1797.    1386.     693. <
      1266    1  -4  12   2    1797.    1386.     693. <
      1267    2  -2 -12   4    1386.    1705.     613. o
      1267    1   4  12  -2    1386.    1705.     613. o
      1268    2   2 -12  -2   28296.   30375.     778. o
      1268    1  -2  12   2   28296.   30375.     778. o
      1269    2  -2 -12   2   28498.   31707.    1528. o
      1269    1   2  12  -2   28498.   31707.    1528. o
      1270    2   2 -12   0   22452.   18278.    1322. o
      1270    1   0  12   2   22452.   18278.    1322. o
      1271    2  -2 -12   0   24980.   18145.    1152. o
      1271    1   0  12  -2   24980.   18145.    1152. o
      1272    2   2 -12   2   29000.   22808.    1493. o
      1272    1   2  12   2   29000.   22808.    1493. o
      1273    2  -2 -12  -2   27794.   26165.    2270. o
      1273    1  -2  12  -2   27794.   26165.    2270. o
      1274    2   2 -12   4    1293.     480.     933. <
      1274    1   4  12   2    1293.     480.     933. <
      1275    2  -2 -12  -4    1891.    1146.    1039. <
      1275    1  -4  12  -2    1891.    1146.    1039. <
      1276    2   2 -12   6   27344.   23740.     880. o
      1276    1   6  12   2   27344.   23740.     880. o
      1277    2  -2 -12  -6   28476.   25392.    1270. o
      1277    1  -6  12  -2   28476.   25392.    1270. o
      1278    2   2 -12   8    2521.    1386.     640. o
      1278    1   8  12   2    2521.    1386.     640. o
      1279    2  -2 -12  -8    1557.    1652.    1252. <
      1279    1  -8  12  -2    1557.    1652.    1252. <
      1280    1  -9  13   2     152.     373.     853. <
      1281    1   9  13  -2     138.     -53.     746. <
      1282    1  -7  13   2     384.    1119.     772. <
      1283    1   7  13  -2     409.    1359.     559. o
      1284    1  -5  13   2    1202.     160.     693. <
      1285    1   5  13  -2    1232.     346.     533. <
      1286    1  -3  13   2    3699.   16280.     747. o
      1287    1   3  13  -2    3799.   12630.     659. o
      1288    1  -1  13   2    3293.   12576.     934. o
      1289    1   1  13  -2    2849.   12709.    1341. o
      1290    1   1  13   2    2849.   12283.    2469. o
      1291    1  -1  13  -2    3293.    9406.    1885. o
      1292    1   3  13   2    3799.   16600.    1218. o
      1293    1  -3  13  -2    3699.   18571.    1809. o
      1294    1   5  13   2    1232.     613.     720. <
      1295    1  -5  13  -2    1202.    1465.    1039. <
      1296    1   7  13   2     409.    1972.     852. o
      1297    1  -7  13  -2     384.    1838.    1119. <
      1298    1   9  13   2     138.     187.     879. <
      1299    1  -9  13  -2     152.     506.    1332. <
      1300    2   2 -14  -8   28648.   30588.     834. o
      1300    1  -8  14   2   28648.   30588.     834. o
      1301    2  -2 -14   8   29544.   29229.     882. o
      1301    1   8  14  -2   29544.   29229.     882. o
      1302    2   2 -14  -6  167187.  202605.    3858. o
      1302    1  -6  14   2  167187.  202605.    3858. o
      1303    2  -2 -14   6  164763.  174601.     818. o
      1303    1   6  14  -2  164763.  174601.     818. o
      1304    2   2 -14  -4  119387.  117156.    1205. o
      1304    1  -4  14   2  119387.  117156.    1205. o
      1305    2  -2 -14   4  126702.  112200.    1531. o
      1305    1   4  14  -2  126702.  112200.    1531. o
      1306    2   2 -14  -2  902876.  898878.    3074. o
      1306    1  -2  14   2  902876.  898878.    3074. o
      1307    2  -2 -14   2  900905.  965676.   19182. o
      1307    1   2  14  -2  900905.  965676.   19182. o
      1308    2   2 -14   0  162344.  110441.    2649. o
      1308    1   0  14   2  162344.  110441.    2649. o
      1309    2  -2 -14   0  151143.  113878.    2488. o
      1309    1   0  14  -2  151143.  113878.    2488. o
      1310    2   2 -14   2  896011.  921126.    5065. o
      1310    1   2  14   2  896011.  921126.    5065. o
      1311    2  -2 -14  -2  907770.  939191.    5167. o
      1311    1  -2  14  -2  907770.  939191.    5167. o
      1312    2   2 -14   4  127725.  110175.    1842. o
      1312    1   4  14   2  127725.  110175.    1842. o
      1313    2  -2 -14  -4  118364.  117715.    2168. o
      1313    1  -4  14  -2  118364.  117715.    2168. o
      1314    2   2 -14   6  164644.  185446.     496. o
      1314    1   6  14   2  164644.  185446.     496. o
      1315    2  -2 -14  -6  167306.  197196.    1381. o
      1315    1  -6  14  -2  167306.  197196.    1381. o
      1316    2   2 -14   8   28986.   29895.     871. o
      1316    1   8  14   2   28986.   29895.     871. o
      1317    2  -2 -14  -8   29206.   30561.    1297. o
      1317    1  -8  14  -2   29206.   30561.    1297. o
      1318    1  -9  15   2     245.     959.     719. <
      1319    1   9  15  -2     240.    1572.     879. <
      1320    1  -7  15   2     107.    1705.     879. <
      1321    1   7  15  -2     107.    1172.     586. <
      1322    1  -5  15   2     200.    1439.     692. o
      1323    1   5  15  -2     235.     213.     799. <
      1324    1  -3  15   2    3222.   12443.     880. o
      1325    1   3  15  -2    3094.    9059.    1377. o
      1326    1  -1  15   2    4627.    4849.     719. o
      1327    1   1  15  -2    5182.    8286.    1835. o
      1328    1   1  15   2    5182.    5915.    2158. o
      1329    1  -1  15  -2    4627.    5569.    2211. o
      1330    1   3  15   2    3094.   10311.     970. o
      1331    1  -3  15  -2    3222.   10818.    1669. o
      1332    1   5  15   2     235.     320.     693. <
      1333    1  -5  15  -2     200.    -213.    1066. <
      1334    1   7  15   2     107.     320.     746. <
      1335    1  -7  15  -2     107.    1279.    1119. <
      1336    1   9  15   2     240.    1066.     879. <
      1337    1  -9  15  -2     245.    1945.    1119. <
      1338    2   2 -16  -8   22421.   26298.     877. o
      1338    1  -8  16   2   22421.   26298.     877. o
      1339    2  -2 -16   8   23668.   25605.     919. o
      1339    1   8  16  -2   23668.   25605.     919. o
      1340    2   2 -16  -6   62623.   67943.     915. o
      1340    1  -6  16   2   62623.   67943.     915. o
      1341    2  -2 -16   6   60980.   63254.     835. o
      1341    1   6  16  -2   60980.   63254.     835. o
      1342    2   2 -16  -4  140916.  143747.    1134. o
      1342    1  -4  16   2  140916.  143747.    1134. o
      1343    2  -2 -16   4  145677.  142868.    1336. o
      1343    1   4  16  -2  145677.  142868.    1336. o
      1344    2   2 -16  -2  565675.  539657.    3535. o
      1344    1  -2  16   2  565675.  539657.    3535. o
      1345    2  -2 -16   2  564692.  600966.    2648. o
      1345    1   2  16  -2  564692.  600966.    2648. o
      1346    2   2 -16   0  321322.  253043.    4123. o
      1346    1   0  16   2  321322.  253043.    4123. o
      1347    2  -2 -16   0  314199.  256666.    3963. o
      1347    1   0  16  -2  314199.  256666.    3963. o
      1348    2   2 -16   2  562252.  511228.    5785. o
      1348    1   2  16   2  562252.  511228.    5785. o
      1349    2  -2 -16  -2  568115.  570725.    4767. o
      1349    1  -2  16  -2  568115.  570725.    4767. o
      1350    2   2 -16   4  147180.  136260.    1790. o
      1350    1   4  16   2  147180.  136260.    1790. o
      1351    2  -2 -16  -4  139413.  145772.    2042. o
      1351    1  -4  16  -2  139413.  145772.    2042. o
      1352    2   2 -16   6   61370.   58751.    1078. o
      1352    1   6  16   2   61370.   58751.    1078. o
      1353    2  -2 -16  -6   62233.   60616.    1483. o
      1353    1  -6  16  -2   62233.   60616.    1483. o
      1354    2   2 -16   8   23581.   23420.     907. o
      1354    1   8  16   2   23581.   23420.     907. o
      1355    2  -2 -16  -8   22508.   23927.    1513. o
      1355    1  -8  16  -2   22508.   23927.    1513. o
      1356    1  -9  17   2     360.     240.     879. <
      1357    1   9  17  -2     376.    1386.     746. <
      1358    1  -7  17   2     386.    1625.     879. <
      1359    1   7  17  -2     367.     613.     719. <
      1360    1  -5  17   2    1223.    4396.     742. o
      1361    1   5  17  -2    1212.    4130.     582. o
      1362    1  -3  17   2     265.    6368.     683. o
      1363    1   3  17  -2     216.    8793.    1510. o
      1364    1  -1  17   2    4616.    8526.     978. o
      1365    1   1  17  -2    4709.    3810.    1333. o
      1366    1   1  17   2    4709.    7594.    1542. o
      1367    1  -1  17  -2    4616.    6501.    1543. o
      1368    1   3  17   2     216.    5702.     926. o
      1369    1  -3  17  -2     265.    6022.    1648. o
      1370    1   5  17   2    1212.    2611.     745. o
      1371    1  -5  17  -2    1223.    2531.    1278. <
      1372    1   7  17   2     367.     506.     799. <
      1373    1  -7  17  -2     386.    1439.    1305. <
      1374    1   9  17   2     376.     187.     826. <
      1375    1  -9  17  -2     360.     266.    1386. <
      1376    2   2 -18  -8    1644.    1705.     666. o
      1376    1  -8  18   2    1644.    1705.     666. o
      1377    2  -2 -18   8    2400.    1892.     853. o
      1377    1   8  18  -2    2400.    1892.     853. o
      1378    2   2 -18  -6   36473.   38315.     967. o
      1378    1  -6  18   2   36473.   38315.     967. o
      1379    2  -2 -18   6   36625.   32879.     968. o
      1379    1   6  18  -2   36625.   32879.     968. o
      1380    2   2 -18  -4    1813.    1838.     719. o
      1380    1  -4  18   2    1813.    1838.     719. o
      1381    2  -2 -18   4    1628.    1732.     826. o
      1381    1   4  18  -2    1628.    1732.     826. o
      1382    2   2 -18  -2   61389.   70635.     896. o
      1382    1  -2  18   2   61389.   70635.     896. o
      1383    2  -2 -18   2   62065.   54115.    1596. o
      1383    1   2  18  -2   62065.   54115.    1596. o
      1384    2   2 -18   0   33197.   25552.    1195. o
      1384    1   0  18   2   33197.   25552.    1195. o
      1385    2  -2 -18   0   34341.   25632.    1279. o
      1385    1   0  18  -2   34341.   25632.    1279. o
      1386    2   2 -18   2   63744.   61336.    2309. o
      1386    1   2  18   2   63744.   61336.    2309. o
      1387    2  -2 -18  -2   59710.   59710.    2211. o
      1387    1  -2  18  -2   59710.   59710.    2211. o
      1388    2   2 -18   4    1462.    2238.    1012. o
      1388    1   4  18   2    1462.    2238.    1012. o
      1389    2  -2 -18  -4    1979.    2052.    1412. <
      1389    1  -4  18  -2    1979.    2052.    1412. <
      1390    2   2 -18   6   36159.   29682.     965. o
      1390    1   6  18   2   36159.   29682.     965. o
      1391    2  -2 -18  -6   36939.   34531.    1454. o
      1391    1  -6  18  -2   36939.   34531.    1454. o
      1392    2   2 -18   8    2636.    1812.     800. o
      1392    1   8  18   2    2636.    1812.     800. o
      1393    2  -2 -18  -8    1408.     400.    1386. <
      1393    1  -8  18  -2    1408.     400.    1386. <
      1394    1  -9  19   2      64.     400.     746. <
      1395    1   9  19  -2      57.     799.     906. <
      1396    1  -7  19   2     267.     533.     613. <
      1397    1   7  19  -2     306.     373.     719. <
      1398    1  -5  19   2     603.     -80.     719. <
      1399    1   5  19  -2     518.     400.     826. <
      1400    1  -3  19   2    3488.    7674.     601. o
      1401    1   3  19  -2    3641.    6714.    1409. o
      1402    1  -1  19   2    6411.    9219.     980. o
      1403    1   1  19  -2    6461.    6475.    1838. o
      1404    1   1  19   2    6461.    6261.    2345. o
      1405    1  -1  19  -2    6411.    5622.    1493. o
      1406    1   3  19   2    3641.    6448.    1383. o
      1407    1  -3  19  -2    3487.    7221.    1408. o
      1408    1   5  19   2     518.    -400.     826. <
      1409    1  -5  19  -2     603.     639.    1172. <
      1410    1   7  19   2     306.    2371.     905. o
      1411    1  -7  19  -2     267.    2052.    1332. <
      1412    1   9  19   2      57.     639.     932. <
      1413    1  -9  19  -2      64.     133.    1439. <
      1414    2   2 -20  -8    2714.    2558.     666. o
      1414    1  -8  20   2    2714.    2558.     666. o
      1415    2  -2 -20   8    2773.    2291.     746. o
      1415    1   8  20  -2    2773.    2291.     746. o
      1416    2   2 -20  -6    2698.    3144.     719. o
      1416    1  -6  20   2    2698.    3144.     719. o
      1417    2  -2 -20   6    2096.    2824.     852. o
      1417    1   6  20  -2    2096.    2824.     852. o
      1418    2   2 -20  -4    1898.    2132.     639. o
      1418    1  -4  20   2    1898.    2132.     639. o
      1419    2  -2 -20   4    2454.    2718.     986. o
      1419    1   4  20  -2    2454.    2718.     986. o
      1420    2   2 -20  -2   49451.   48173.     872. o
      1420    1  -2  20   2   49451.   48173.     872. o
      1421    2  -2 -20   2   48874.   45296.    1522. o
      1421    1   2  20  -2   48874.   45296.    1522. o
      1422    2   2 -20   0    3342.     666.     907. <
      1422    1   0  20   2    3342.     666.     907. <
      1423    2  -2 -20   0    1852.    1492.    1332. <
      1423    1   0  20  -2    1852.    1492.    1332. <
      1424    2   2 -20   2   47443.   46841.    1577. o
      1424    1   2  20   2   47443.   46841.    1577. o
      1425    2  -2 -20  -2   50882.   46122.    2081. o
      1425    1  -2  20  -2   50882.   46122.    2081. o
      1426    2   2 -20   4    2508.    1705.     853. <
      1426    1   4  20   2    2508.    1705.     853. <
      1427    2  -2 -20  -4    1844.    2078.    1279. <
      1427    1  -4  20  -2    1844.    2078.    1279. <
      1428    2   2 -20   6    2138.     773.     960. <
      1428    1   6  20   2    2138.     773.     960. <
      1429    2  -2 -20  -6    2656.    1146.    1359. <
      1429    1  -6  20  -2    2656.    1146.    1359. <
      1430    2   2 -20   8    2744.    1359.     960. <
      1430    1   8  20   2    2744.    1359.     960. <
      1431    2  -2 -20  -8    2743.    1519.    1066. <
      1431    1  -8  20  -2    2743.    1519.    1066. <
      1432    1  -9  21   2      42.    1092.    1012. <
      1433    1   9  21  -2      49.     560.     666. <
      1434    1  -7  21   2     162.     853.     639. <
      1435    1   7  21  -2     170.    1439.     799. <
      1436    1  -5  21   2    1708.    1012.     746. <
      1437    1   5  21  -2    1787.     213.     773. <
      1438    1  -3  21   2     241.    1918.     639. o
      1439    1   3  21  -2     159.    1945.     932. o
      1440    1  -1  21   2    5452.   10498.    1028. o
      1441    1   1  21  -2    6506.    9379.    1488. o
      1442    1   1  21   2    6506.    8953.    2209. o
      1443    1  -1  21  -2    5452.    7114.    1250. o
      1444    1   3  21   2     159.    2185.    1278. <
      1445    1  -3  21  -2     241.    1599.    1439. <
      1446    1   5  21   2    1787.    -160.     746. <
      1447    1  -5  21  -2    1708.    -107.    1386. <
      1448    1   7  21   2     170.    2105.     772. o
      1449    1  -7  21  -2     162.    1705.    1225. <
      1450    1   9  21   2      49.     799.     826. <
      1451    1  -9  21  -2      42.    -693.    1465. <
      1452    2   2 -22  -8   27359.   29922.     965. o
      1452    1  -8  22   2   27359.   29922.     965. o
      1453    2  -2 -22   8   27820.   26272.     918. o
      1453    1   8  22  -2   27820.   26272.     918. o
      1454    2   2 -22  -6   77434.   83530.     903. o
      1454    1  -6  22   2   77434.   83530.     903. o
      1455    2  -2 -22   6   73504.   78868.    1103. o
      1455    1   6  22  -2   73504.   78868.    1103. o
      1456    2   2 -22  -4   72487.   77429.     818. o
      1456    1  -4  22   2   72487.   77429.     818. o
      1457    2  -2 -22   4   75527.   73512.    1807. o
      1457    1   4  22  -2   75527.   73512.    1807. o
      1458    2   2 -22  -2  293052.  324396.    6327. o
      1458    1  -2  22   2  293052.  324396.    6327. o
      1459    2  -2 -22   2  290640.  313232.    2689. o
      1459    1   2  22  -2  290640.  313232.    2689. o
      1460    2   2 -22   0   64490.   66052.    1608. o
      1460    1   0  22   2   64490.   66052.    1608. o
      1461    2  -2 -22   0   60041.   60350.    1729. o
      1461    1   0  22  -2   60041.   60350.    1729. o
      1462    2   2 -22   2  284650.  305159.    2702. o
      1462    1   2  22   2  284650.  305159.    2702. o
      1463    2  -2 -22  -2  299043.  301536.    3189. o
      1463    1  -2  22  -2  299043.  301536.    3189. o
      1464    2   2 -22   4   76922.   69382.    1864. o
      1464    1   4  22   2   76922.   69382.    1864. o
      1465    2  -2 -22  -4   71092.   78335.    2089. o
      1465    1  -4  22  -2   71092.   78335.    2089. o
      1466    2   2 -22   6   74224.   69222.    1275. o
      1466    1   6  22   2   74224.   69222.    1275. o
      1467    2  -2 -22  -6   76715.   87660.    1786. o
      1467    1  -6  22  -2   76715.   87660.    1786. o
      1468    2   2 -22   8   27865.   23740.    1039. o
      1468    1   8  22   2   27865.   23740.    1039. o
      1469    2  -2 -22  -8   27315.   28909.    1564. o
      1469    1  -8  22  -2   27315.   28909.    1564. o
      1470    1  -7  23   2     164.     -80.     639. <
      1471    1   7  23  -2     179.    -160.     826. <
      1472    1  -5  23   2    1950.   10418.     584. o
      1473    1   5  23  -2    1948.   10232.    1374. o
      1474    1  -3  23   2    1001.    1918.     639. o
      1475    1   3  23  -2    1181.    2744.    1278. o
      1476    1  -1  23   2    5025.   15187.    1117. o
      1477    1   1  23  -2    4948.    8153.    1702. o
      1478    1   1  23   2    4948.   18411.    2243. o
      1479    1  -1  23  -2    5025.   13002.    1477. o
      1480    1   3  23   2    1181.    2398.    1198. <
      1481    1  -3  23  -2    1001.    1359.    1359. <
      1482    1   5  23   2    1948.   13722.    1173. o
      1483    1  -5  23  -2    1950.   13775.    1768. o
      1484    1   7  23   2     179.     746.     773. <
      1485    1  -7  23  -2     164.     213.    1279. <
      1486    2   2 -24  -8    3947.    4503.     825. o
      1486    1  -8  24   2    3947.    4503.     825. o
      1487    2  -2 -24   8    4022.    3784.     773. o
      1487    1   8  24  -2    4022.    3784.     773. o
      1488    2   2 -24  -6    4527.    3784.     641. o
      1488    1  -6  24   2    4527.    3784.     641. o
      1489    2  -2 -24   6    3410.    4556.    1278. o
      1489    1   6  24  -2    3410.    4556.    1278. o
      1490    2   2 -24  -4    2242.    3410.     638. o
      1490    1  -4  24   2    2242.    3410.     638. o
      1491    2  -2 -24   4    3069.    1918.    1333. <
      1491    1   4  24  -2    3069.    1918.    1333. <
      1492    2   2 -24  -2    7123.    7833.     664. o
      1492    1  -2  24   2    7123.    7833.     664. o
      1493    2  -2 -24   2    6630.    6421.    1546. o
      1493    1   2  24  -2    6630.    6421.    1546. o
      1494    2   2 -24   0   10242.    8899.    1228. o
      1494    1   0  24   2   10242.    8899.    1228. o
      1495    2  -2 -24   0    8826.    7860.    1307. o
      1495    1   0  24  -2    8826.    7860.    1307. o
      1496    2   2 -24   2    5408.    2744.    1042. o
      1496    1   2  24   2    5408.    2744.    1042. o
      1497    2  -2 -24  -2    8345.    2158.    1099. <
      1497    1  -2  24  -2    8345.    2158.    1099. <
      1498    2   2 -24   4    3058.    2451.    1839. <
      1498    1   4  24   2    3058.    2451.    1839. <
      1499    2  -2 -24  -4    2254.    2691.    1199. o
      1499    1  -4  24  -2    2254.    2691.    1199. o
      1500    2   2 -24   6    3298.     799.     960. <
      1500    1   6  24   2    3298.     799.     960. <
      1501    2  -2 -24  -6    4638.    1199.    1281. <
      1501    1  -6  24  -2    4638.    1199.    1281. <
      1502    2   2 -24   8    4011.    3091.     800. o
      1502    1   8  24   2    4011.    3091.     800. o
      1503    2  -2 -24  -8    3958.    4050.    1412. o
      1503    1  -8  24  -2    3958.    4050.    1412. o
      1504    1  -7  25   2     434.    -240.     666. <
      1505    1   7  25  -2     390.     959.     746. <
      1506    1  -5  25   2     396.    2984.     664. o
      1507    1   5  25  -2     465.    -453.    1359. <
      1508    1  -3  25   2    2182.     666.     587. <
      1509    1   3  25  -2    2010.    -293.    1226. <
      1510    1  -1  25   2    2973.    3784.     905. o
      1511    1   1  25  -2    2946.    4956.    1997. o
      1512    1   1  25   2    2946.    2371.    1572. <
      1513    1  -1  25  -2    2973.    2158.    1333. <
      1514    1   3  25   2    2010.     293.    1093. <
      1515    1  -3  25  -2    2182.    1945.    1679. <
      1516    1   5  25   2     465.    3624.    1677. o
      1517    1  -5  25  -2     396.    1652.     959. <
      1518    1   7  25   2     390.     560.     799. <
      1519    1  -7  25  -2     434.     -80.    1465. <
      1520    2   2 -26  -8    7104.    8713.    1036. o
      1520    1  -8  26   2    7104.    8713.    1036. o
      1521    2  -2 -26   8    7537.    6261.     829. o
      1521    1   8  26  -2    7537.    6261.     829. o
      1522    2   2 -26  -6   30262.   31520.     705. o
      1522    1  -6  26   2   30262.   31520.     705. o
      1523    2  -2 -26   6   29774.   28003.    1528. o
      1523    1   6  26  -2   29774.   28003.    1528. o
      1524    2   2 -26  -4   19313.   26724.     649. o
      1524    1  -4  26   2   19313.   26724.     649. o
      1525    2  -2 -26   4   18312.   24966.    1627. o
      1525    1   4  26  -2   18312.   24966.    1627. o
      1526    2   2 -26  -2   18626.   13669.     747. o
      1526    1  -2  26   2   18626.   13669.     747. o
      1527    2  -2 -26   2   18874.   15854.    1660. o
      1527    1   2  26  -2   18874.   15854.    1660. o
      1528    2   2 -26   0   30079.   37862.    1470. o
      1528    1   0  26   2   30079.   37862.    1470. o
      1529    2  -2 -26   0   32085.   33865.    1347. o
      1529    1   0  26  -2   32085.   33865.    1347. o
      1530    2   2 -26   2   19489.   11724.    1171. o
      1530    1   2  26   2   19489.   11724.    1171. o
      1531    2  -2 -26  -2   18011.   10338.    1221. o
      1531    1  -2  26  -2   18011.   10338.    1221. o
      1532    2   2 -26   4   18144.   22834.    1851. o
      1532    1   4  26   2   18144.   22834.    1851. o
      1533    2  -2 -26  -4   19480.   24300.    1445. o
      1533    1  -4  26  -2   19480.   24300.    1445. o
      1534    2   2 -26   6   29667.   25312.     991. o
      1534    1   6  26   2   29667.   25312.     991. o
      1535    2  -2 -26  -6   30369.   32186.    1723. o
      1535    1  -6  26  -2   30369.   32186.    1723. o
      1536    2   2 -26   8    7580.    7327.    1066. o
      1536    1   8  26   2    7580.    7327.    1066. o
      1537    2  -2 -26  -8    7060.    9006.    1462. o
      1537    1  -8  26  -2    7060.    9006.    1462. o
      1538    1  -7  27   2     256.    1066.     666. <
      1539    1   7  27  -2     256.    1759.     932. <
      1540    1  -5  27   2    1124.    1039.     640. <
      1541    1   5  27  -2    1085.    1679.    1305. <
      1542    1  -3  27   2    1941.    4796.     689. o
      1543    1   3  27  -2    1935.    5356.    1516. o
      1544    1  -1  27   2    9460.    6341.     913. o
      1545    1   1  27  -2    9038.    5942.    1975. o
      1546    1   1  27   2    9038.    5675.    1496. o
      1547    1  -1  27  -2    9460.    5036.    1418. o
      1548    1   3  27   2    1935.    3810.    1544. o
      1549    1  -3  27  -2    1941.    3624.    1278. o
      1550    1   5  27   2    1085.     879.    1252. <
      1551    1  -5  27  -2    1124.     213.    1199. <
      1552    1   7  27   2     256.    1892.    1039. <
      1553    1  -7  27  -2     256.    2451.    1251. <
      1554    2   2 -28  -8    8301.    7940.     987. o
      1554    1  -8  28   2    8301.    7940.     987. o
      1555    2  -2 -28   8    8359.    8393.    1439. o
      1555    1   8  28  -2    8359.    8393.    1439. o
      1556    2   2 -28  -6   18627.   21156.     727. o
      1556    1  -6  28   2   18627.   21156.     727. o
      1557    2  -2 -28   6   18307.   19131.    1169. o
      1557    1   6  28  -2   18307.   19131.    1169. o
      1558    2   2 -28  -4   26499.   32027.     684. o
      1558    1  -4  28   2   26499.   32027.     684. o
      1559    2  -2 -28   4   28293.   32160.    1686. o
      1559    1   4  28  -2   28293.   32160.    1686. o
      1560    2   2 -28  -2   78274.   63014.    1257. o
      1560    1  -2  28   2   78274.   63014.    1257. o
      1561    2  -2 -28   2   77887.   80440.    2160. o
      1561    1   2  28  -2   77887.   80440.    2160. o
      1562    2   2 -28   0   17642.   14948.    1156. o
      1562    1   0  28   2   17642.   14948.    1156. o
      1563    2  -2 -28   0   15241.   13589.    1257. o
      1563    1   0  28  -2   15241.   13589.    1257. o
      1564    2   2 -28   2   76927.   73645.    1926. o
      1564    1   2  28   2   76927.   73645.    1926. o
      1565    2  -2 -28  -2   79234.   56167.    2382. o
      1565    1  -2  28  -2   79234.   56167.    2382. o
      1566    2   2 -28   4   28434.   32293.    1389. o
      1566    1   4  28   2   28434.   32293.    1389. o
      1567    2  -2 -28  -4   26358.   30668.    1766. o
      1567    1  -4  28  -2   26358.   30668.    1766. o
      1568    2   2 -28   6   18166.   16386.    1285. o
      1568    1   6  28   2   18166.   16386.    1285. o
      1569    2  -2 -28  -6   18767.   17346.    1072. o
      1569    1  -6  28  -2   18767.   17346.    1072. o
      1570    2   2 -28   8    8323.    7620.    1094. o
      1570    1   8  28   2    8323.    7620.    1094. o
      1571    2  -2 -28  -8    8336.    8846.    1278. o
      1571    1  -8  28  -2    8336.    8846.    1278. o
      1572    1  -7  29   2     198.     906.     613. <
      1573    1   7  29  -2     185.   -1066.    1359. <
      1574    1  -5  29   2     550.     853.     666. <
      1575    1   5  29  -2     551.    1252.     986. <
      1576    1  -3  29   2    3804.     773.     536. <
      1577    1   3  29  -2    3699.     853.    1520. <
      1578    1  -1  29   2     762.    2211.    1038. o
      1579    1   1  29  -2     835.    2798.    2051. <
      1580    1   1  29   2     835.     986.    1412. <
      1581    1  -1  29  -2     762.    2105.    1199. <
      1582    1   3  29   2    3699.     826.    1120. <
      1583    1  -3  29  -2    3804.    1279.    1200. <
      1584    1   5  29   2     551.    -719.    1332. <
      1585    1  -5  29  -2     550.    1492.    1199. <
      1586    1   7  29   2     185.    -533.    1119. <
      1587    1  -7  29  -2     198.    -533.    1146. <
      1588    2   2 -30  -8   23157.   20410.     845. o
      1588    1  -8  30   2   23157.   20410.     845. o
      1589    2  -2 -30   8   23630.   16972.    1305. o
      1589    1   8  30  -2   23630.   16972.    1305. o
      1590    2   2 -30  -6   46065.   49266.     775. o
      1590    1  -6  30   2   46065.   49266.     775. o
      1591    2  -2 -30   6   45581.   48333.    1685. o
      1591    1   6  30  -2   45581.   48333.    1685. o
      1592    2   2 -30  -4  111380.  127441.     573. o
      1592    1  -4  30   2  111380.  127441.     573. o
      1593    2  -2 -30   4  114759.  105992.    1972. o
      1593    1   4  30  -2  114759.  105992.    1972. o
      1594    2   2 -30  -2  247923.  257359.    1204. o
      1594    1  -2  30   2  247923.  257359.    1204. o
      1595    2  -2 -30   2  247626.  288027.    2577. o
      1595    1   2  30  -2  247626.  288027.    2577. o
      1596    2   2 -30   0  199750.  212676.    1922. o
      1596    1   0  30   2  199750.  212676.    1922. o
      1597    2  -2 -30   0  194662.  180543.    2531. o
      1597    1   0  30  -2  194662.  180543.    2531. o
      1598    2   2 -30   2  246888.  276836.    1888. o
      1598    1   2  30   2  246888.  276836.    1888. o
      1599    2  -2 -30  -2  248661.  226451.    3723. o
      1599    1  -2  30  -2  248661.  226451.    3723. o
      1600    2   2 -30   4  115831.  115770.    1946. o
      1600    1   4  30   2  115831.  115770.    1946. o
      1601    2  -2 -30  -4  110308.  113052.    2822. o
      1601    1  -4  30  -2  110308.  113052.    2822. o
      1602    2   2 -30   6   45208.   41752.    1649. o
      1602    1   6  30   2   45208.   41752.    1649. o
      1603    2  -2 -30  -6   46438.   50358.    1457. o
      1603    1  -6  30  -2   46438.   50358.    1457. o
      1604    2   2 -30   8   23426.   13669.    1417. o
      1604    1   8  30   2   23426.   13669.    1417. o
      1605    2  -2 -30  -8   23362.   23554.    1545. o
      1605    1  -8  30  -2   23362.   23554.    1545. o
      1606    1  -7  31   2     258.     826.     666. <
      1607    1   7  31  -2     253.    2158.    1065. o
      1608    1  -5  31   2     613.     933.     693. <
      1609    1   5  31  -2     575.     346.    1465. <
      1610    1  -3  31   2     942.    4823.     714. o
      1611    1   3  31  -2     982.    2798.    1171. o
      1612    1  -1  31   2    1701.    4263.    1144. o
      1613    1   1  31  -2    1586.    3464.    1918. <
      1614    1   1  31   2    1586.    2291.    1332. <
      1615    1  -1  31  -2    1701.    1172.    1226. <
      1616    1   3  31   2     982.    5169.    1382. o
      1617    1  -3  31  -2     942.    7141.    1593. o
      1618    1   5  31   2     575.    -266.    1199. <
      1619    1  -5  31  -2     613.     187.    1172. <
      1620    1   7  31   2     253.     160.    1172. <
      1621    1  -7  31  -2     258.    1599.     959. <
      1622    2   2 -32  -8    1308.    1732.     879. <
      1622    1  -8  32   2    1308.    1732.     879. <
      1623    2  -2 -32   8    1631.     986.    1466. <
      1623    1   8  32  -2    1631.     986.    1466. <
      1624    2   2 -32  -6    1802.    1199.     640. <
      1624    1  -6  32   2    1802.    1199.     640. <
      1625    2  -2 -32   6    1748.    1332.    1093. <
      1625    1   6  32  -2    1748.    1332.    1093. <
      1626    2   2 -32  -4    2992.    1439.     774. <
      1626    1  -4  32   2    2992.    1439.     774. <
      1627    2  -2 -32   4    3412.     480.    1519. <
      1627    1   4  32  -2    3412.     480.    1519. <
      1628    2   2 -32  -2   15782.   22648.     892. o
      1628    1  -2  32   2   15782.   22648.     892. o
      1629    2  -2 -32   2   15891.   18252.    1404. o
      1629    1   2  32  -2   15891.   18252.    1404. o
      1630    2   2 -32   0    4355.     400.     908. <
      1630    1   0  32   2    4355.     400.     908. <
      1631    2  -2 -32   0    4171.    1732.    1174. <
      1631    1   0  32  -2    4171.    1732.    1174. <
      1632    2   2 -32   2   16163.   23820.    1490. o
      1632    1   2  32   2   16163.   23820.    1490. o
      1633    2  -2 -32  -2   15510.   17639.    1486. o
      1633    1  -2  32  -2   15510.   17639.    1486. o
      1634    2   2 -32   4    3466.     693.    1040. <
      1634    1   4  32   2    3466.     693.    1040. <
      1635    2  -2 -32  -4    2937.     959.    1626. <
      1635    1  -4  32  -2    2937.     959.    1626. <
      1636    2   2 -32   6    1757.     -53.    1279. <
      1636    1   6  32   2    1757.     -53.    1279. <
      1637    2  -2 -32  -6    1793.     933.    1093. <
      1637    1  -6  32  -2    1793.     933.    1093. <
      1638    2   2 -32   8    1633.    1039.    1252. <
      1638    1   8  32   2    1633.    1039.    1252. <
      1639    2  -2 -32  -8    1306.    -293.    1013. <
      1639    1  -8  32  -2    1306.    -293.    1013. <
      1640    1  -7  33   2     373.    1199.     666. <
      1641    1   7  33  -2     355.   -1012.    1545. <
      1642    1  -5  33   2     394.     107.     639. <
      1643    1   5  33  -2     385.    1492.    1145. <
      1644    1  -3  33   2    1879.    1625.     666. o
      1645    1   3  33  -2    1825.    1599.    1572. <
      1646    1  -1  33   2    1403.    2558.     932. o
      1647    1   1  33  -2    1345.    1359.    1812. <
      1648    1   1  33   2    1345.    1306.    1279. <
      1649    1  -1  33  -2    1403.    1439.    1146. <
      1650    1   3  33   2    1825.    1412.     933. <
      1651    1  -3  33  -2    1879.    1972.    1066. <
      1652    1   5  33   2     385.     959.    1092. <
      1653    1  -5  33  -2     394.     187.    1172. <
      1654    1   7  33   2     355.    1146.    1225. <
      1655    1  -7  33  -2     373.    1226.    1039. <
      1656    2   2 -34  -6    3299.    3464.     772. o
      1656    1  -6  34   2    3299.    3464.     772. o
      1657    2  -2 -34   6    3300.    3384.    1465. o
      1657    1   6  34  -2    3300.    3384.    1465. o
      1658    2   2 -34  -4    1721.    3171.     665. o
      1658    1  -4  34   2    1721.    3171.     665. o
      1659    2  -2 -34   4    1729.    1972.    1172. <
      1659    1   4  34  -2    1729.    1972.    1172. <
      1660    2   2 -34  -2    2921.     853.     854. <
      1660    1  -2  34   2    2921.     853.     854. <
      1661    2  -2 -34   2    3051.    2345.    1626. <
      1661    1   2  34  -2    3051.    2345.    1626. <
      1662    2   2 -34   0   10292.   16866.    1150. o
      1662    1   0  34   2   10292.   16866.    1150. o
      1663    2  -2 -34   0   10436.   15241.    1265. o
      1663    1   0  34  -2   10436.   15241.    1265. o
      1664    2   2 -34   2    3372.    1359.    1306. <
      1664    1   2  34   2    3372.    1359.    1306. <
      1665    2  -2 -34  -2    2599.     373.    1226. <
      1665    1  -2  34  -2    2599.     373.    1226. <
      1666    2   2 -34   4    1499.    2052.    1385. <
      1666    1   4  34   2    1499.    2052.    1385. <
      1667    2  -2 -34  -4    1951.    4183.    1117. o
      1667    1  -4  34  -2    1951.    4183.    1117. o
      1668    2   2 -34   6    3374.    2798.    1199. o
      1668    1   6  34   2    3374.    2798.    1199. o
      1669    2  -2 -34  -6    3225.    1892.    1067. <
      1669    1  -6  34  -2    3225.    1892.    1067. <
      1670    1  -7  35   2     275.     506.     746. <
      1671    1   7  35  -2     280.    1306.    1066. <
      1672    1  -5  35   2     536.    1039.     773. <
      1673    1   5  35  -2     534.     213.    1572. <
      1674    1  -3  35   2    1614.    1092.     800. <
      1675    1   3  35  -2    1659.    1519.    1652. <
      1676    1  -1  35   2    1684.    1759.    1146. <
      1677    1   1  35  -2    1659.    2158.    1252. <
      1678    1   1  35   2    1659.    1625.    1172. <
      1679    1  -1  35  -2    1684.     959.    1412. <
      1680    1   3  35   2    1659.    1865.    1306. <
      1681    1  -3  35  -2    1614.    1812.    1412. <
      1682    1   5  35   2     534.    -719.    1465. <
      1683    1  -5  35  -2     536.     213.    1279. <
      1684    1   7  35   2     280.    -586.    1306. <
      1685    1  -7  35  -2     275.     533.    1012. <
      1686    2   2 -36  -6   13228.   11617.     885. o
      1686    1  -6  36   2   13228.   11617.     885. o
      1687    2  -2 -36   6   12797.   10578.    1656. o
      1687    1   6  36  -2   12797.   10578.    1656. o
      1688    2   2 -36  -4   33181.   39940.     798. o
      1688    1  -4  36   2   33181.   39940.     798. o
      1689    2  -2 -36   4   33878.   40233.    1640. o
      1689    1   4  36  -2   33878.   40233.    1640. o
      1690    2   2 -36  -2   73849.   69889.    1311. o
      1690    1  -2  36   2   73849.   69889.    1311. o
      1691    2  -2 -36   2   73311.   66185.    2244. o
      1691    1   2  36  -2   73311.   66185.    2244. o
      1692    2   2 -36   0   54968.   80839.    1214. o
      1692    1   0  36   2   54968.   80839.    1214. o
      1693    2  -2 -36   0   54305.   72633.    1622. o
      1693    1   0  36  -2   54305.   72633.    1622. o
      1694    2   2 -36   2   71975.   50172.    1563. o
      1694    1   2  36   2   71975.   50172.    1563. o
      1695    2  -2 -36  -2   75185.   62428.    1958. o
      1695    1  -2  36  -2   75185.   62428.    1958. o
      1696    2   2 -36   4   34697.   36103.    1322. o
      1696    1   4  36   2   34697.   36103.    1322. o
      1697    2  -2 -36  -4   32362.   44336.    1739. o
      1697    1  -4  36  -2   32362.   44336.    1739. o
      1698    2   2 -36   6   12742.    7460.    1183. o
      1698    1   6  36   2   12742.    7460.    1183. o
      1699    2  -2 -36  -6   13284.    9965.    1366. o
      1699    1  -6  36  -2   13284.    9965.    1366. o
      1700    1  -7  37   2     172.    1119.     799. <
      1701    1   7  37  -2     194.    -293.    1172. <
      1702    1  -5  37   2    1310.    1252.     666. <
      1703    1   5  37  -2    1353.    1252.    1705. <
      1704    1  -3  37   2     146.     160.     879. <
      1705    1   3  37  -2     127.    -639.    1199. <
      1706    1  -1  37   2    4015.     480.    1094. <
      1707    1   1  37  -2    4155.     533.    1254. <
      1708    1   1  37   2    4155.    1412.    1280. <
      1709    1  -1  37  -2    4015.      27.    1094. <
      1710    1   3  37   2     127.     826.     826. <
      1711    1  -3  37  -2     146.     213.    1012. <
      1712    1   5  37   2    1353.   -2771.    1491. <
      1713    1  -5  37  -2    1310.     773.    1625. <
      1714    1   7  37   2     194.   -1545.    1252. <
      1715    1  -7  37  -2     172.     213.    1146. <
      1716    2   2 -38  -6    7038.    8073.     743. o
      1716    1  -6  38   2    7038.    8073.     743. o
      1717    2  -2 -38   6    6462.    5968.    1226. o
      1717    1   6  38  -2    6462.    5968.    1226. o
      1718    2   2 -38  -4   11883.   13828.     898. o
      1718    1  -4  38   2   11883.   13828.     898. o
      1719    2  -2 -38   4   11891.   10924.    1734. o
      1719    1   4  38  -2   11891.   10924.    1734. o
      1720    2   2 -38  -2   17541.   12576.     874. o
      1720    1  -2  38   2   17541.   12576.     874. o
      1721    2  -2 -38   2   16999.    5462.    1696. o
      1721    1   2  38  -2   16999.    5462.    1696. o
      1722    2   2 -38   0    5893.    3597.     935. o
      1722    1   0  38   2    5893.    3597.     935. o
      1723    2  -2 -38   0    6054.    5062.    1227. o
      1723    1   0  38  -2    6054.    5062.    1227. o
      1724    2   2 -38   2   15654.   15587.    1066. o
      1724    1   2  38   2   15654.   15587.    1066. o
      1725    2  -2 -38  -2   18886.   19530.    1330. o
      1725    1  -2  38  -2   18886.   19530.    1330. o
      1726    2   2 -38   4   12250.   13722.    1408. o
      1726    1   4  38   2   12250.   13722.    1408. o
      1727    2  -2 -38  -4   11525.    9645.    1150. o
      1727    1  -4  38  -2   11525.    9645.    1150. o
      1728    2   2 -38   6    6451.    7594.    1144. o
      1728    1   6  38   2    6451.    7594.    1144. o
      1729    2  -2 -38  -6    7048.    7620.    1491. o
      1729    1  -6  38  -2    7048.    7620.    1491. o
      1730    1  -5  39   2     656.    1625.     719. o
      1731    1   5  39  -2     698.    1705.    1652. <
      1732    1  -3  39   2     916.     613.     773. <
      1733    1   3  39  -2     868.   -1172.    1225. <
      1734    1  -1  39   2     510.    1652.    1065. <
      1735    1   1  39  -2     541.     560.    1199. <
      1736    1   1  39   2     541.    1359.    1039. <
      1737    1  -1  39  -2     510.    2158.    1198. <
      1738    1   3  39   2     868.     346.     853. <
      1739    1  -3  39  -2     915.     906.     933. <
      1740    1   5  39   2     698.     906.    1012. <
      1741    1  -5  39  -2     656.    3331.    1118. o
      1742    2   2 -40  -6    7070.    3917.     831. o
      1742    1  -6  40   2    7070.    3917.     831. o
      1743    2  -2 -40   6    6651.    2798.    1282. o
      1743    1   6  40  -2    6651.    2798.    1282. o
      1744    2   2 -40  -4    7004.   15987.     926. o
      1744    1  -4  40   2    7004.   15987.     926. o
      1745    2  -2 -40   4    6725.   16733.    1873. o
      1745    1   4  40  -2    6725.   16733.    1873. o
      1746    2   2 -40  -2    9198.    2185.     810. o
      1746    1  -2  40   2    9198.    2185.     810. o
      1747    2  -2 -40   2    9169.     -27.    1391. <
      1747    1   2  40  -2    9169.     -27.    1391. <
      1748    2   2 -40   0   17297.   30641.    1003. o
      1748    1   0  40   2   17297.   30641.    1003. o
      1749    2  -2 -40   0   17862.   25286.    1271. o
      1749    1   0  40  -2   17862.   25286.    1271. o
      1750    2   2 -40   2    9096.    1172.     888. <
      1750    1   2  40   2    9096.    1172.     888. <
      1751    2  -2 -40  -2    9271.    2425.    1100. o
      1751    1  -2  40  -2    9271.    2425.    1100. o
      1752    2   2 -40   4    6461.   14415.    1015. o
      1752    1   4  40   2    6461.   14415.    1015. o
      1753    2  -2 -40  -4    7268.   15747.    1526. o
      1753    1  -4  40  -2    7268.   15747.    1526. o
      1754    2   2 -40   6    6742.     613.    1096. <
      1754    1   6  40   2    6742.     613.    1096. <
      1755    2  -2 -40  -6    6979.    5835.    1653. o
      1755    1  -6  40  -2    6979.    5835.    1653. o
      1756    1  -5  41   2     541.    1066.     826. <
      1757    1   5  41  -2     548.    -160.    1146. <
      1758    1  -3  41   2     350.     293.     773. <
      1759    1   3  41  -2     320.    -799.    1226. <
      1760    1  -1  41   2    1160.     826.     986. <
      1761    1   1  41  -2    1163.       0.     959. <
      1762    1   1  41   2    1163.    1172.    1172. <
      1763    1  -1  41  -2    1160.     107.    1066. <
      1764    1   3  41   2     320.     986.    1226. <
      1765    1  -3  41  -2     350.    2265.    1198. <
      1766    1   5  41   2     548.    1972.    1332. <
      1767    1  -5  41  -2     541.    2984.    1518. <
      1768    2   2 -42  -6     415.     373.     773. <
      1768    1  -6  42   2     415.     373.     773. <
      1769    2  -2 -42   6     327.    2158.    1305. <
      1769    1   6  42  -2     327.    2158.    1305. <
      1770    2   2 -42  -4     734.     639.     879. <
      1770    1  -4  42   2     734.     639.     879. <
      1771    2  -2 -42   4     842.    2265.    1678. <
      1771    1   4  42  -2     842.    2265.    1678. <
      1772    2   2 -42  -2    3350.    1279.     721. <
      1772    1  -2  42   2    3350.    1279.     721. <
      1773    2   2 -42   0     728.     613.     933. <
      1773    1   0  42   2     728.     613.     933. <
      1774    2  -2 -42   0     636.     533.    1066. <
      1774    1   0  42  -2     636.     533.    1066. <
      1775    2   2 -42   2    3176.    1252.     960. <
      1775    1   2  42   2    3176.    1252.     960. <
      1776    2  -2 -42  -2    3473.    2078.    1093. <
      1776    1  -2  42  -2    3473.    2078.    1093. <
      1777    2   2 -42   4     868.    1199.    1279. <
      1777    1   4  42   2     868.    1199.    1279. <
      1778    2  -2 -42  -4     709.    1998.     985. o
      1778    1  -4  42  -2     709.    1998.     985. o
      1779    2   2 -42   6     321.    2345.    1491. <
      1779    1   6  42   2     321.    2345.    1491. <
      1780    2  -2 -42  -6     420.    1146.    1172. <
      1780    1  -6  42  -2     420.    1146.    1172. <
      1781    1  -5  43   2     868.     746.     879. <
      1782    1   5  43  -2     859.     107.    1759. <
      1783    1  -3  43   2     438.    1012.     852. <
      1784    1   3  43  -2     374.     -80.    1146. <
      1785    1  -1  43   2    1331.    1146.     853. <
      1786    1   1  43  -2    1449.     133.     933. <
      1787    1   1  43   2    1449.     400.    1039. <
      1788    1  -1  43  -2    1331.    1599.    1172. <
      1789    1   3  43   2     374.    1146.    1252. <
      1790    1  -3  43  -2     438.     906.     932. <
      1791    1   5  43   2     859.    -560.     986. <
      1792    1  -5  43  -2     868.     906.     959. <
      1793    2   2 -44  -4   27713.   33758.    1045. o
      1793    1  -4  44   2   27713.   33758.    1045. o
      1794    2  -2 -44   4   28336.   32080.    1902. o
      1794    1   4  44  -2   28336.   32080.    1902. o
      1795    2   2 -44  -2   35767.   27870.    1099. o
      1795    1  -2  44   2   35767.   27870.    1099. o
      1796    2   2 -44   0   32061.   39008.    1197. o
      1796    1   0  44   2   32061.   39008.    1197. o
      1797    2  -2 -44   0   31077.   31600.    1302. o
      1797    1   0  44  -2   31077.   31600.    1302. o
      1798    2   2 -44   2   35358.   37276.    1479. o
      1798    1   2  44   2   35358.   37276.    1479. o
      1799    2  -2 -44  -2   36058.   32213.    1410. o
      1799    1  -2  44  -2   36058.   32213.    1410. o
      1800    2   2 -44   4   28644.   20650.    1188. o
      1800    1   4  44   2   28644.   20650.    1188. o
      1801    2  -2 -44  -4   27406.   30561.    1259. o
      1801    1  -4  44  -2   27406.   30561.    1259. o
      1802    1  -5  45   2     372.     133.    1039. <
      1803    1   5  45  -2     368.     693.    1572. <
      1804    1  -3  45   2     903.    1119.     906. <
      1805    1   3  45  -2     859.    -107.    1545. <
      1806    1  -1  45   2     415.    1146.     666. <
      1807    1   1  45  -2     477.    1439.    1066. <
      1808    1   1  45   2     477.     533.     933. <
      1809    1  -1  45  -2     415.     133.    1199. <
      1810    1   3  45   2     859.     719.    1226. <
      1811    1  -3  45  -2     903.    -826.    1332. <
      1812    1   5  45   2     368.    1226.    1385. <
      1813    1  -5  45  -2     372.    1785.    1518. <
      1814    2   2 -46  -4    8965.    3810.     861. o
      1814    1  -4  46   2    8965.    3810.     861. o
      1815    2  -2 -46   4    9368.    5382.    1152. o
      1815    1   4  46  -2    9368.    5382.    1152. o
      1816    2   2 -46  -2   16985.   18358.     845. o
      1816    1  -2  46   2   16985.   18358.     845. o
      1817    2   2 -46   0   18807.   11990.    1012. o
      1817    1   0  46   2   18807.   11990.    1012. o
      1818    2  -2 -46   0   18211.   13748.    1188. o
      1818    1   0  46  -2   18211.   13748.    1188. o
      1819    2   2 -46   2   17049.   29735.    1405. o
      1819    1   2  46   2   17049.   29735.    1405. o
      1820    2  -2 -46  -2   16940.   22941.    1280. o
      1820    1  -2  46  -2   16940.   22941.    1280. o
      1821    2   2 -46   4    9488.    4849.     994. o
      1821    1   4  46   2    9488.    4849.     994. o
      1822    2  -2 -46  -4    8846.    5995.    1442. o
      1822    1  -4  46  -2    8846.    5995.    1442. o
      1823    1  -5  47   2     313.    2158.    1145. <
      1824    1   5  47  -2     326.   -1545.    1598. <
      1825    1  -3  47   2     120.     613.     773. <
      1826    1   3  47  -2     111.     506.    1545. <
      1827    1  -1  47   2     717.      27.     879. <
      1828    1   1  47  -2     756.     666.    1092. <
      1829    1   1  47   2     756.    1172.    1146. <
      1830    1  -1  47  -2     717.    -240.    1066. <
      1831    1   3  47   2     111.    1172.    1199. <
      1832    1  -3  47  -2     120.     160.     933. <
      1833    1   5  47   2     326.     -80.     986. <
      1834    1  -5  47  -2     313.     293.     986. <
      1835    2   2 -48  -4     353.    2425.    1118. o
      1835    1  -4  48   2     353.    2425.    1118. o
      1836    2  -2 -48   4     477.    2718.    1598. <
      1836    1   4  48  -2     477.    2718.    1598. <
      1837    2   2 -48  -2    1755.     266.     773. <
      1837    1  -2  48   2    1755.     266.     773. <
      1838    2   2 -48   0     697.    3037.    1118. o
      1838    1   0  48   2     697.    3037.    1118. o
      1839    2  -2 -48   0     645.    3117.    1064. o
      1839    1   0  48  -2     645.    3117.    1064. o
      1840    2   2 -48   2    2046.      53.    1199. <
      1840    1   2  48   2    2046.      53.    1199. <
      1841    2  -2 -48  -2    1548.    1039.    1039. <
      1841    1  -2  48  -2    1548.    1039.    1039. <
      1842    2   2 -48   4     434.    3410.    1251. o
      1842    1   4  48   2     434.    3410.    1251. o
      1843    2  -2 -48  -4     397.    1199.     986. <
      1843    1  -4  48  -2     397.    1199.     986. <
      1844    1  -3  49   2     481.     107.     826. <
      1845    1   3  49  -2     464.     -53.    1092. <
      1846    1  -1  49   2     147.     373.     826. <
      1847    1   1  49  -2     156.     240.    1012. <
      1848    1   1  49   2     156.     346.    1039. <
      1849    1  -1  49  -2     147.     -80.    1039. <
      1850    1   3  49   2     464.    -453.     826. <
      1851    1  -3  49  -2     481.     773.    1252. <
      1852    2   2 -50  -2    4512.    5302.     771. o
      1852    1  -2  50   2    4512.    5302.     771. o
      1853    2   2 -50   0    4838.    4716.     986. o
      1853    1   0  50   2    4838.    4716.     986. o
      1854    2  -2 -50   0    4515.    3224.    1040. o
      1854    1   0  50  -2    4515.    3224.    1040. o
      1855    2   2 -50   2    4442.    3730.    1306. o
      1855    1   2  50   2    4442.    3730.    1306. o
      1856    2  -2 -50  -2    4562.    3943.    1093. o
      1856    1  -2  50  -2    4562.    3943.    1093. o
      1857    1  -3  51   2     203.     959.     773. <
      1858    1   3  51  -2     195.       0.    1572. <
      1859    1  -1  51   2     337.     799.     853. <
      1860    1   1  51  -2     376.     320.     906. <
      1861    1   1  51   2     376.    1599.    1252. <
      1862    1  -1  51  -2     337.    -320.    1039. <
      1863    1   3  51   2     195.     400.     853. <
      1864    1  -3  51  -2     203.     320.    1039. <
      1865    2   2 -52  -2   13112.   13802.     850. o
      1865    1  -2  52   2   13112.   13802.     850. o
      1866    2   2 -52   0   14952.   12390.    1021. o
      1866    1   0  52   2   14952.   12390.    1021. o
      1867    2  -2 -52   0   14996.   13029.    1178. o
      1867    1   0  52  -2   14996.   13029.    1178. o
      1868    2   2 -52   2   12568.   11058.    1017. o
      1868    1   2  52   2   12568.   11058.    1017. o
      1869    2  -2 -52  -2   13500.    9699.    1155. o
      1869    1  -2  52  -2   13500.    9699.    1155. o
      1870    1  -1  53   2     758.    1226.     852. <
      1871    1   1  53  -2     781.    1386.     906. <
      1872    1   1  53   2     781.     666.    1252. <
      1873    1  -1  53  -2     758.      27.     853. <
      1874    2   2 -54   0    1442.    4423.     983. o
      1874    1   0  54   2    1442.    4423.     983. o
      1875    2  -2 -54   0    1483.    2291.    1039. o
      1875    1   0  54  -2    1483.    2291.    1039. o
      1876    2   3  -1  -9   25839.   25605.     961. o
      1876    1  -9   1   3   25839.   25605.     961. o
      1877    2  -3  -1   9   25425.   22088.     748. o
      1877    1   9   1  -3   25425.   22088.     748. o
      1878    2   3  -1  -7   35241.   42604.     844. o
      1878    1  -7   1   3   35241.   42604.     844. o
      1879    2  -3  -1   7   37037.   42791.     949. o
      1879    1   7   1  -3   37037.   42791.     949. o
      1880    2   3  -1  -5  240674.  260743.    5145. o
      1880    1  -5   1   3  240674.  260743.    5145. o
      1881    2  -3  -1   5  238641.  252936.     506. o
      1881    1   5   1  -3  238641.  252936.     506. o
      1882    2   3  -1  -3  219109.  222268.    1361. o
      1882    1  -3   1   3  219109.  222268.    1361. o
      1883    2  -3  -1   3  216393.  218005.    1456. o
      1883    1   3   1  -3  216393.  218005.    1456. o
      1884    2   3  -1  -1  618704.  598168.    3763. o
      1884    1  -1   1   3  618704.  598168.    3763. o
      1885    2  -3  -1   1  622610.  569232.    5661. o
      1885    1   1   1  -3  622610.  569232.    5661. o
      1886    2   3  -1   1  627890.  597769.    5724. o
      1886    1   1   1   3  627890.  597769.    5724. o
      1887    2  -3  -1  -1  613424.  603657.    4205. o
      1887    1  -1   1  -3  613424.  603657.    4205. o
      1888    2   3  -1   3  209648.  208093.    2015. o
      1888    1   3   1   3  209648.  208093.    2015. o
      1889    2  -3  -1  -3  225854.  239587.    2974. o
      1889    1  -3   1  -3  225854.  239587.    2974. o
      1890    2   3  -1   5  241637.  234871.    1963. o
      1890    1   5   1   3  241637.  234871.    1963. o
      1891    2  -3  -1  -5  237678.  244623.    2290. o
      1891    1  -5   1  -3  237678.  244623.    2290. o
      1892    2   3  -1   7   36096.   40286.     996. o
      1892    1   7   1   3   36096.   40286.     996. o
      1893    2  -3  -1  -7   36182.   37888.    1642. o
      1893    1  -7   1  -3   36182.   37888.    1642. o
      1894    2   3  -1   9   25944.   20463.     814. o
      1894    1   9   1   3   25944.   20463.     814. o
      1895    2  -3  -1  -9   25321.   25259.    1519. o
      1895    1  -9   1  -3   25321.   25259.    1519. o
      1896    1  -8   2   3    3942.     639.     881. <
      1897    1   8   2  -3    3778.     639.     562. <
      1898    1  -6   2   3    5791.     906.     777. <
      1899    1   6   2  -3    6126.     133.     671. <
      1900    1  -4   2   3    3242.    4743.     610. o
      1901    1   4   2  -3    3003.    3224.     639. o
      1902    1  -2   2   3    6102.    3970.     564. o
      1903    1   2   2  -3    5982.    4636.     695. o
      1904    1   2   2   3    5982.    3810.    1414. o
      1905    1  -2   2  -3    6102.    4130.    1467. o
      1906    1   4   2   3    3003.    4796.     930. o
      1907    1  -4   2  -3    3242.    2878.    1359. o
      1908    1   6   2   3    6126.      80.     751. <
      1909    1  -6   2  -3    5791.     266.    1228. <
      1910    1   8   2   3    3778.     533.     589. <
      1911    1  -8   2  -3    3942.     320.    1573. <
      1912    2   3  -3  -9    9463.    8153.     724. o
      1912    1  -9   3   3    9463.    8153.     724. o
      1913    2  -3  -3   9    9464.    7860.     910. o
      1913    1   9   3  -3    9464.    7860.     910. o
      1914    2   3  -3  -7    9272.   12017.     681. o
      1914    1  -7   3   3    9272.   12017.     681. o
      1915    2  -3  -3   7    8915.   11697.     870. o
      1915    1   7   3  -3    8915.   11697.     870. o
      1916    2   3  -3  -5   10020.   13322.     813. o
      1916    1  -5   3   3   10020.   13322.     813. o
      1917    2  -3  -3   5   11102.   14281.     731. o
      1917    1   5   3  -3   11102.   14281.     731. o
      1918    2   3  -3  -3   46740.   44576.     831. o
      1918    1  -3   3   3   46740.   44576.     831. o
      1919    2  -3  -3   3   47340.   43058.     861. o
      1919    1   3   3  -3   47340.   43058.     861. o
      1920    2   3  -3  -1   15645.   17266.     601. o
      1920    1  -1   3   3   15645.   17266.     601. o
      1921    2  -3  -3   1   13727.   17878.    1049. o
      1921    1   1   3  -3   13727.   17878.    1049. o
      1922    2   3  -3   1   13836.   16999.    1644. o
      1922    1   1   3   3   13836.   16999.    1644. o
      1923    2  -3  -3  -1   15536.   17159.    1005. o
      1923    1  -1   3  -3   15536.   17159.    1005. o
      1924    2   3  -3   3   48829.   42764.    1386. o
      1924    1   3   3   3   48829.   42764.    1386. o
      1925    2  -3  -3  -3   45251.   45136.    2026. o
      1925    1  -3   3  -3   45251.   45136.    2026. o
      1926    2   3  -3   5   11500.    7034.     812. o
      1926    1   5   3   3   11500.    7034.     812. o
      1927    2  -3  -3  -5    9622.    6981.    1469. o
      1927    1  -5   3  -3    9622.    6981.    1469. o
      1928    2   3  -3   7    8527.    9912.     822. o
      1928    1   7   3   3    8527.    9912.     822. o
      1929    2  -3  -3  -7    9660.   10738.    1116. o
      1929    1  -7   3  -3    9660.   10738.    1116. o
      1930    2   3  -3   9    9835.    6928.     675. o
      1930    1   9   3   3    9835.    6928.     675. o
      1931    2  -3  -3  -9    9092.    7594.    1494. o
      1931    1  -9   3  -3    9092.    7594.    1494. o
      1932    1  -8   4   3    1657.    1545.     613. o
      1933    1   8   4  -3    1657.    1652.     826. <
      1934    1  -6   4   3    1307.    2185.     772. o
      1935    1   6   4  -3    1168.    1705.     666. o
      1936    1  -4   4   3    2384.    3091.     665. o
      1937    1   4   4  -3    2296.    3704.     771. o
      1938    1  -2   4   3    8341.    3064.     781. o
      1939    1   2   4  -3    8577.    2185.     703. o
      1940    1   2   4   3    8577.    1625.    1338. <
      1941    1  -2   4  -3    8341.    1439.    1178. <
      1942    1   4   4   3    2296.     986.     827. <
      1943    1  -4   4  -3    2384.    2558.    1599. <
      1944    1   6   4   3    1168.    1892.     746. o
      1945    1  -6   4  -3    1307.    1119.    1013. <
      1946    1   8   4   3    1657.    1066.     746. <
      1947    1  -8   4  -3    1657.    1172.    1386. <
      1948    2   3  -5  -9    3270.    2505.     800. o
      1948    1  -9   5   3    3270.    2505.     800. o
      1949    2  -3  -5   9    3187.    3410.     746. o
      1949    1   9   5  -3    3187.    3410.     746. o
      1950    2   3  -5  -7    5536.    8713.     629. o
      1950    1  -7   5   3    5536.    8713.     629. o
      1951    2  -3  -5   7    5254.    7141.     715. o
      1951    1   7   5  -3    5254.    7141.     715. o
      1952    2   3  -5  -5    2199.   11430.     578. o
      1952    1  -5   5   3    2199.   11430.     578. o
      1953    2  -3  -5   5    2254.   11271.     719. o
      1953    1   5   5  -3    2254.   11271.     719. o
      1954    2   3  -5  -3   18025.   14015.     716. o
      1954    1  -3   5   3   18025.   14015.     716. o
      1955    2  -3  -5   3   17769.   12150.     748. o
      1955    1   3   5  -3   17769.   12150.     748. o
      1956    2   3  -5  -1    7078.    9326.     712. o
      1956    1  -1   5   3    7078.    9326.     712. o
      1957    2  -3  -5   1    7078.    9459.    1275. o
      1957    1   1   5  -3    7078.    9459.    1275. o
      1958    2   3  -5   1    7528.    3997.    1708. o
      1958    1   1   5   3    7528.    3997.    1708. o
      1959    2  -3  -5  -1    6628.    4743.    1015. o
      1959    1  -1   5  -3    6628.    4743.    1015. o
      1960    2   3  -5   3   17131.   11590.    1137. o
      1960    1   3   5   3   17131.   11590.    1137. o
      1961    2  -3  -5  -3   18662.   11910.    1272. o
      1961    1  -3   5  -3   18662.   11910.    1272. o
      1962    2   3  -5   5    2247.    3837.     904. o
      1962    1   5   5   3    2247.    3837.     904. o
      1963    2  -3  -5  -5    2207.    2824.    1305. o
      1963    1  -5   5  -3    2207.    2824.    1305. o
      1964    2   3  -5   7    5122.    7514.     874. o
      1964    1   7   5   3    5122.    7514.     874. o
      1965    2  -3  -5  -7    5668.    5808.    1305. o
      1965    1  -7   5  -3    5668.    5808.    1305. o
      1966    2   3  -5   9    3226.    4130.     932. o
      1966    1   9   5   3    3226.    4130.     932. o
      1967    2  -3  -5  -9    3231.    2611.    1146. o
      1967    1  -9   5  -3    3231.    2611.    1146. o
      1968    1  -8   6   3    2066.    3171.     878. o
      1969    1   8   6  -3    2125.    2878.     692. o
      1970    1  -6   6   3     933.    3943.     716. o
      1971    1   6   6  -3     820.    4743.     768. o
      1972    1  -4   6   3    2568.    7514.     817. o
      1973    1   4   6  -3    2812.    5995.     687. o
      1974    1  -2   6   3    6644.    1705.     567. o
      1975    1   2   6  -3    6205.    4023.     723. o
      1976    1   2   6   3    6205.    3117.    1574. <
      1977    1  -2   6  -3    6644.    4316.    1388. o
      1978    1   4   6   3    2812.    4476.     984. o
      1979    1  -4   6  -3    2568.    2691.    1492. <
      1980    1   6   6   3     820.    5382.     740. o
      1981    1  -6   6  -3     933.    4583.    1437. o
      1982    1   8   6   3    2125.    2291.     799. o
      1983    1  -8   6  -3    2066.    1039.    1439. <
      1984    2   3  -7  -9   32287.   31707.    1017. o
      1984    1  -9   7   3   32287.   31707.    1017. o
      1985    2  -3  -7   9   31416.   30268.     785. o
      1985    1   9   7  -3   31416.   30268.     785. o
      1986    2   3  -7  -7   36562.   44550.     801. o
      1986    1  -7   7   3   36562.   44550.     801. o
      1987    2  -3  -7   7   38679.   41432.     733. o
      1987    1   7   7  -3   38679.   41432.     733. o
      1988    2   3  -7  -5  202287.  239321.    4527. o
      1988    1  -5   7   3  202287.  239321.    4527. o
      1989    2  -3  -7   5  197976.  233352.    4453. o
      1989    1   5   7  -3  197976.  233352.    4453. o
      1990    2   3  -7  -3  115927.  108470.    1301. o
      1990    1  -3   7   3  115927.  108470.    1301. o
      1991    2  -3  -7   3  113066.  104979.    1310. o
      1991    1   3   7  -3  113066.  104979.    1310. o
      1992    2   3  -7  -1  294953.  263860.    2649. o
      1992    1  -1   7   3  294953.  263860.    2649. o
      1993    2  -3  -7   1  307737.  283737.    3533. o
      1993    1   1   7  -3  307737.  283737.    3533. o
      1994    2   3  -7   1  309540.  279980.    4230. o
      1994    1   1   7   3  309540.  279980.    4230. o
      1995    2  -3  -7  -1  293149.  273745.    4173. o
      1995    1  -1   7  -3  293149.  273745.    4173. o
      1996    2   3  -7   3  105963.  105166.    1745. o
      1996    1   3   7   3  105963.  105166.    1745. o
      1997    2  -3  -7  -3  123030.  107750.    2410. o
      1997    1  -3   7  -3  123030.  107750.    2410. o
      1998    2   3  -7   5  202261.  215660.    1221. o
      1998    1   5   7   3  202261.  215660.    1221. o
      1999    2  -3  -7  -5  198002.  215074.    2121. o
      1999    1  -5   7  -3  198002.  215074.    2121. o
      2000    2   3  -7   7   36362.   41885.     867. o
      2000    1   7   7   3   36362.   41885.     867. o
      2001    2  -3  -7  -7   38878.   40739.    1747. o
      2001    1  -7   7  -3   38878.   40739.    1747. o
      2002    2   3  -7   9   32107.   24939.     937. o
      2002    1   9   7   3   32107.   24939.     937. o
      2003    2  -3  -7  -9   31595.   31014.    1921. o
      2003    1  -9   7  -3   31595.   31014.    1921. o
      2004    1  -8   8   3    3704.    1759.     641. o
      2005    1   8   8  -3    3671.     160.     827. <
      2006    1  -6   8   3    4456.    1732.     589. o
      2007    1   6   8  -3    4542.    2052.     696. o
      2008    1  -4   8   3    7804.   14095.     746. o
      2009    1   4   8  -3    7658.   16600.     842. o
      2010    1  -2   8   3     337.    4130.     581. o
      2011    1   2   8  -3     369.    8127.    1109. o
      2012    1   2   8   3     369.    9485.    1240. o
      2013    1  -2   8  -3     337.    9139.    1187. o
      2014    1   4   8   3    7658.   16813.     924. o
      2015    1  -4   8  -3    7804.   13109.    1696. o
      2016    1   6   8   3    4542.    3490.     774. o
      2017    1  -6   8  -3    4456.    2958.    1440. o
      2018    1   8   8   3    3671.    1439.     641. o
      2019    1  -8   8  -3    3704.    1812.    1413. <
      2020    2   3  -9  -9    4662.    2558.     988. o
      2020    1  -9   9   3    4662.    2558.     988. o
      2021    2  -3  -9   9    4499.    3144.     748. o
      2021    1   9   9  -3    4499.    3144.     748. o
      2022    2   3  -9  -7    2478.    4077.     771. o
      2022    1  -7   9   3    2478.    4077.     771. o
      2023    2  -3  -9   7    2993.    4077.     718. o
      2023    1   7   9  -3    2993.    4077.     718. o
      2024    2   3  -9  -5   37795.   50465.     571. o
      2024    1  -5   9   3   37795.   50465.     571. o
      2025    2  -3  -9   5   37010.   49932.     843. o
      2025    1   5   9  -3   37010.   49932.     843. o
      2026    2   3  -9  -3    9040.    5862.     780. o
      2026    1  -3   9   3    9040.    5862.     780. o
      2027    2  -3  -9   3    8445.    5409.     674. o
      2027    1   3   9  -3    8445.    5409.     674. o
      2028    2   3  -9  -1   47342.   49745.     871. o
      2028    1  -1   9   3   47342.   49745.     871. o
      2029    2  -3  -9   1   50525.   48520.    1641. o
      2029    1   1   9  -3   50525.   48520.    1641. o
      2030    2   3  -9   1   52450.   43963.    1511. o
      2030    1   1   9   3   52450.   43963.    1511. o
      2031    2  -3  -9  -1   45418.   42844.    2304. o
      2031    1  -1   9  -3   45418.   42844.    2304. o
      2032    2   3  -9   3    6965.    4263.     910. o
      2032    1   3   9   3    6965.    4263.     910. o
      2033    2  -3  -9  -3   10520.    5808.    1604. o
      2033    1  -3   9  -3   10520.    5808.    1604. o
      2034    2   3  -9   5   38069.   35650.    1062. o
      2034    1   5   9   3   38069.   35650.    1062. o
      2035    2  -3  -9  -5   36736.   39940.    1632. o
      2035    1  -5   9  -3   36736.   39940.    1632. o
      2036    2   3  -9   7    2577.    2371.     800. o
      2036    1   7   9   3    2577.    2371.     800. o
      2037    2  -3  -9  -7    2894.    3144.    1599. <
      2037    1  -7   9  -3    2894.    3144.    1599. <
      2038    2   3  -9   9    4461.    2505.     934. o
      2038    1   9   9   3    4461.    2505.     934. o
      2039    2  -3  -9  -9    4700.    2771.    1573. <
      2039    1  -9   9  -3    4700.    2771.    1573. <
      2040    1  -8  10   3     632.    1998.     639. o
      2041    1   8  10  -3     640.    1465.     586. o
      2042    1  -6  10   3      95.     959.     586. <
      2043    1   6  10  -3      96.    1226.     666. <
      2044    1  -4  10   3    1874.    4103.     690. o
      2045    1   4  10  -3    1791.    2158.     586. o
      2046    1  -2  10   3    5809.    4583.     642. o
      2047    1   2  10  -3    6038.    4663.    1094. o
      2048    1   2  10   3    6038.    4450.    1068. o
      2049    1  -2  10  -3    5808.    4210.    1227. o
      2050    1   4  10   3    1791.    2718.     825. o
      2051    1  -4  10  -3    1874.    2931.    1438. o
      2052    1   6  10   3      96.     693.     853. <
      2053    1  -6  10  -3      95.     666.    1199. <
      2054    1   8  10   3     640.    1865.     799. o
      2055    1  -8  10  -3     631.    2984.    1678. <
      2056    2   3 -11  -9   15014.   14868.     933. o
      2056    1  -9  11   3   15014.   14868.     933. o
      2057    2  -3 -11   9   14945.   12176.     680. o
      2057    1   9  11  -3   14945.   12176.     680. o
      2058    2   3 -11  -7   25683.   31201.     913. o
      2058    1  -7  11   3   25683.   31201.     913. o
      2059    2  -3 -11   7   25298.   29469.     787. o
      2059    1   7  11  -3   25298.   29469.     787. o
      2060    2   3 -11  -5   28111.   35943.     677. o
      2060    1  -5  11   3   28111.   35943.     677. o
      2061    2  -3 -11   5   29558.   34984.     880. o
      2061    1   5  11  -3   29558.   34984.     880. o
      2062    2   3 -11  -3   89505.   89632.    1009. o
      2062    1  -3  11   3   89505.   89632.    1009. o
      2063    2  -3 -11   3   89332.   91790.    1120. o
      2063    1   3  11  -3   89332.   91790.    1120. o
      2064    2   3 -11  -1   54835.   52383.    1202. o
      2064    1  -1  11   3   54835.   52383.    1202. o
      2065    2   3 -11   1   52852.   47480.    1642. o
      2065    1   1  11   3   52852.   47480.    1642. o
      2066    2  -3 -11  -1   53379.   45456.    2127. o
      2066    1  -1  11  -3   53379.   45456.    2127. o
      2067    2   3 -11   3   88902.   85129.    1730. o
      2067    1   3  11   3   88902.   85129.    1730. o
      2068    2  -3 -11  -3   89935.   89739.    1974. o
      2068    1  -3  11  -3   89935.   89739.    1974. o
      2069    2   3 -11   5   29310.   30561.    1056. o
      2069    1   5  11   3   29310.   30561.    1056. o
      2070    2  -3 -11  -5   28360.   31254.    1718. o
      2070    1  -5  11  -3   28360.   31254.    1718. o
      2071    2   3 -11   7   24617.   27684.    1018. o
      2071    1   7  11   3   24617.   27684.    1018. o
      2072    2  -3 -11  -7   26364.   29975.    1770. o
      2072    1  -7  11  -3   26364.   29975.    1770. o
      2073    2   3 -11   9   15364.   15107.     960. o
      2073    1   9  11   3   15364.   15107.     960. o
      2074    2  -3 -11  -9   14594.   14122.    1706. o
      2074    1  -9  11  -3   14594.   14122.    1706. o
      2075    1  -8  12   3    1984.    1146.     906. <
      2076    1   8  12  -3    1915.    1892.     586. o
      2077    1  -6  12   3    4720.    4849.     826. o
      2078    1   6  12  -3    4928.    4609.     720. o
      2079    1  -4  12   3    6873.    6448.     614. o
      2080    1   4  12  -3    6452.    6714.     585. o
      2081    1  -2  12   3    1820.    8659.     511. o
      2082    1   2  12  -3    1647.    7221.     843. o
      2083    1   2  12   3    1647.   11244.    1478. o
      2084    1  -2  12  -3    1820.    9352.    1268. o
      2085    1   4  12   3    6452.    4503.     989. o
      2086    1  -4  12  -3    6873.    4316.    1627. o
      2087    1   6  12   3    4928.    3837.     881. o
      2088    1  -6  12  -3    4720.    2558.    1493. <
      2089    1   8  12   3    1915.     959.     880. <
      2090    1  -8  12  -3    1984.    2771.    1732. <
      2091    2   3 -13  -9    4341.    3624.    1013. o
      2091    1  -9  13   3    4341.    3624.    1013. o
      2092    2  -3 -13   9    4046.    3997.     799. o
      2092    1   9  13  -3    4046.    3997.     799. o
      2093    2   3 -13  -7    7229.    7540.     772. o
      2093    1  -7  13   3    7229.    7540.     772. o
      2094    2  -3 -13   7    7831.    9272.     768. o
      2094    1   7  13  -3    7831.    9272.     768. o
      2095    2   3 -13  -5   58812.   73033.     822. o
      2095    1  -5  13   3   58812.   73033.     822. o
      2096    2  -3 -13   5   58092.   69569.     789. o
      2096    1   5  13  -3   58092.   69569.     789. o
      2097    2   3 -13  -3   24712.   22035.     820. o
      2097    1  -3  13   3   24712.   22035.     820. o
      2098    2  -3 -13   3   24314.   24593.    1331. o
      2098    1   3  13  -3   24314.   24593.    1331. o
      2099    2   3 -13  -1   80253.   85769.    1265. o
      2099    1  -1  13   3   80253.   85769.    1265. o
      2100    2   3 -13   1   84404.   78042.    2040. o
      2100    1   1  13   3   84404.   78042.    2040. o
      2101    2  -3 -13  -1   80592.   78654.    2812. o
      2101    1  -1  13  -3   80592.   78654.    2812. o
      2102    2   3 -13   3   23326.   20676.    1212. o
      2102    1   3  13   3   23326.   20676.    1212. o
      2103    2  -3 -13  -3   25700.   21422.    1457. o
      2103    1  -3  13  -3   25700.   21422.    1457. o
      2104    2   3 -13   5   59143.   61922.    1243. o
      2104    1   5  13   3   59143.   61922.    1243. o
      2105    2  -3 -13  -5   57762.   65332.    1796. o
      2105    1  -5  13  -3   57762.   65332.    1796. o
      2106    2   3 -13   7    7577.    7008.     774. o
      2106    1   7  13   3    7577.    7008.     774. o
      2107    2  -3 -13  -7    7483.    8286.    1651. o
      2107    1  -7  13  -3    7483.    8286.    1651. o
      2108    2   3 -13   9    4177.    4743.     985. o
      2108    1   9  13   3    4177.    4743.     985. o
      2109    2  -3 -13  -9    4210.    4103.    1625. o
      2109    1  -9  13  -3    4210.    4103.    1625. o
      2110    1  -8  14   3     466.     -80.     906. <
      2111    1   8  14  -3     425.    1705.     825. o
      2112    1  -6  14   3     797.    1306.     719. <
      2113    1   6  14  -3     839.    1519.     586. o
      2114    1  -4  14   3    1985.    2611.     585. o
      2115    1   4  14  -3    1861.    3091.     585. o
      2116    1  -2  14   3    2916.    3171.     506. o
      2117    1   2  14  -3    2818.    2664.     853. o
      2118    1   2  14   3    2818.    2904.    1092. o
      2119    1  -2  14  -3    2916.    4450.    2157. o
      2120    1   4  14   3    1861.    2078.     826. o
      2121    1  -4  14  -3    1985.    1545.    1226. <
      2122    1   6  14   3     839.    2505.     878. o
      2123    1  -6  14  -3     797.    1812.    1518. <
      2124    1   8  14   3     425.     933.     959. <
      2125    1  -8  14  -3     466.     533.    1732. <
      2126    2   3 -15  -9   29648.   28829.    1045. o
      2126    1  -9  15   3   29648.   28829.    1045. o
      2127    2  -3 -15   9   28850.   25952.     955. o
      2127    1   9  15  -3   28850.   25952.     955. o
      2128    2   3 -15  -7   53686.   55048.     966. o
      2128    1  -7  15   3   53686.   55048.     966. o
      2129    2  -3 -15   7   56329.   52303.    1093. o
      2129    1   7  15  -3   56329.   52303.    1093. o
      2130    2   3 -15  -5  249651.  281925.    5448. o
      2130    1  -5  15   3  249651.  281925.    5448. o
      2131    2  -3 -15   5  248402.  253789.    1226. o
      2131    1   5  15  -3  248402.  253789.    1226. o
      2132    2   3 -15  -3  282001.  300816.    5942. o
      2132    1  -3  15   3  282001.  300816.    5942. o
      2133    2  -3 -15   3  281331.  281792.    2410. o
      2133    1   3  15  -3  281331.  281792.    2410. o
      2134    2   3 -15  -1  657387.  717243.   13919. o
      2134    1  -1  15   3  657387.  717243.   13919. o
      2135    2  -3 -15   1  670862.  685696.    3859. o
      2135    1   1  15  -3  670862.  685696.    3859. o
      2136    2   3 -15   1  671585.  685029.    5343. o
      2136    1   1  15   3  671585.  685029.    5343. o
      2137    2  -3 -15  -1  656664.  642238.    5999. o
      2137    1  -1  15  -3  656664.  642238.    5999. o
      2138    2   3 -15   3  279668.  270628.    2975. o
      2138    1   3  15   3  279668.  270628.    2975. o
      2139    2  -3 -15  -3  283664.  298285.    3205. o
      2139    1  -3  15  -3  283664.  298285.    3205. o
      2140    2   3 -15   5  252209.  229036.    2511. o
      2140    1   5  15   3  252209.  229036.    2511. o
      2141    2  -3 -15  -5  245844.  263780.    2379. o
      2141    1  -5  15  -3  245844.  263780.    2379. o
      2142    2   3 -15   7   54780.   50198.    1225. o
      2142    1   7  15   3   54780.   50198.    1225. o
      2143    2  -3 -15  -7   55234.   54674.    1976. o
      2143    1  -7  15  -3   55234.   54674.    1976. o
      2144    2   3 -15   9   29464.   25632.    1143. o
      2144    1   9  15   3   29464.   25632.    1143. o
      2145    2  -3 -15  -9   29034.   29016.    1945. o
      2145    1  -9  15  -3   29034.   29016.    1945. o
      2146    1  -8  16   3    2745.    2025.     827. o
      2147    1   8  16  -3    2649.     613.     880. <
      2148    1  -6  16   3    3328.     480.     694. <
      2149    1   6  16  -3    3335.    1039.     801. <
      2150    1  -4  16   3    2069.    1759.     613. o
      2151    1   4  16  -3    2295.    1785.     587. o
      2152    1  -2  16   3    8778.   15001.     633. o
      2153    1   2  16  -3    8574.   18971.    1463. o
      2154    1   2  16   3    8574.   15161.    2040. o
      2155    1  -2  16  -3    8778.   13376.    1643. o
      2156    1   4  16   3    2295.    1785.    1013. <
      2157    1  -4  16  -3    2069.    1545.    1199. <
      2158    1   6  16   3    3335.    2558.     907. o
      2159    1  -6  16  -3    3328.    2638.    1466. <
      2160    1   8  16   3    2649.    1226.     933. <
      2161    1  -8  16  -3    2745.     853.    1466. <
      2162    2   3 -17  -9    1802.    1359.    1013. <
      2162    1  -9  17   3    1802.    1359.    1013. <
      2163    2  -3 -17   9    1822.    1119.     746. <
      2163    1   9  17  -3    1822.    1119.     746. <
      2164    2   3 -17  -7     160.    2078.     852. o
      2164    1  -7  17   3     160.    2078.     852. o
      2165    2  -3 -17   7     227.    2132.     585. o
      2165    1   7  17  -3     227.    2132.     585. o
      2166    2   3 -17  -5   16712.   19797.     670. o
      2166    1  -5  17   3   16712.   19797.     670. o
      2167    2  -3 -17   5   17181.   19637.     647. o
      2167    1   5  17  -3   17181.   19637.     647. o
      2168    2   3 -17  -3    5464.    2878.     538. o
      2168    1  -3  17   3    5464.    2878.     538. o
      2169    2  -3 -17   3    5411.    3224.     855. o
      2169    1   3  17  -3    5411.    3224.     855. o
      2170    2   3 -17  -1   28967.   28723.    1014. o
      2170    1  -1  17   3   28967.   28723.    1014. o
      2171    2  -3 -17   1   29562.   30774.    1860. o
      2171    1   1  17  -3   29562.   30774.    1860. o
      2172    2   3 -17   1   29601.   27044.    2300. o
      2172    1   1  17   3   29601.   27044.    2300. o
      2173    2  -3 -17  -1   28929.   27737.    1950. o
      2173    1  -1  17  -3   28929.   27737.    1950. o
      2174    2   3 -17   3    5279.    1332.    1361. <
      2174    1   3  17   3    5279.    1332.    1361. <
      2175    2  -3 -17  -3    5596.    2132.    1521. <
      2175    1  -3  17  -3    5596.    2132.    1521. <
      2176    2   3 -17   5   17299.   11670.     850. o
      2176    1   5  17   3   17299.   11670.     850. o
      2177    2  -3 -17  -5   16595.   14415.    1471. o
      2177    1  -5  17  -3   16595.   14415.    1471. o
      2178    2   3 -17   7     226.    1652.     905. <
      2178    1   7  17   3     226.    1652.     905. <
      2179    2  -3 -17  -7     161.    1759.    1385. <
      2179    1  -7  17  -3     161.    1759.    1385. <
      2180    2   3 -17   9    1865.     613.    1013. <
      2180    1   9  17   3    1865.     613.    1013. <
      2181    2  -3 -17  -9    1759.    1226.    1625. <
      2181    1  -9  17  -3    1759.    1226.    1625. <
      2182    1  -8  18   3     308.    1705.     772. o
      2183    1   8  18  -3     358.    1226.     719. <
      2184    1  -6  18   3    1882.     160.     720. <
      2185    1   6  18  -3    1699.     879.     666. <
      2186    1  -4  18   3    1732.    2638.     639. o
      2187    1   4  18  -3    1977.    2185.    1252. <
      2188    1  -2  18   3    6252.    3917.     697. o
      2189    1   2  18  -3    5893.    2505.     883. o
      2190    1   2  18   3    5893.    2664.    1255. o
      2191    1  -2  18  -3    6252.    4130.    1760. o
      2192    1   4  18   3    1977.    2265.     879. o
      2193    1  -4  18  -3    1732.    2638.    1358. <
      2194    1   6  18   3    1699.     959.     746. <
      2195    1  -6  18  -3    1882.    1279.    1359. <
      2196    1   8  18   3     358.     426.     773. <
      2197    1  -8  18  -3     308.     426.    1412. <
      2198    2   3 -19  -9    5942.    2878.     936. o
      2198    1  -9  19   3    5942.    2878.     936. o
      2199    2  -3 -19   9    6072.    4769.     695. o
      2199    1   9  19  -3    6072.    4769.     695. o
      2200    2   3 -19  -7   10053.   12709.     924. o
      2200    1  -7  19   3   10053.   12709.     924. o
      2201    2  -3 -19   7    9223.   12097.     789. o
      2201    1   7  19  -3    9223.   12097.     789. o
      2202    2   3 -19  -5    5945.   11750.     862. o
      2202    1  -5  19   3    5945.   11750.     862. o
      2203    2  -3 -19   5    6448.   11004.     785. o
      2203    1   5  19  -3    6448.   11004.     785. o
      2204    2   3 -19  -3   35579.   33519.     771. o
      2204    1  -3  19   3   35579.   33519.     771. o
      2205    2  -3 -19   3   35237.   33599.    1185. o
      2205    1   3  19  -3   35237.   33599.    1185. o
      2206    2   3 -19  -1   16393.   14654.     887. o
      2206    1  -1  19   3   16393.   14654.     887. o
      2207    2  -3 -19   1   15263.   14601.    1733. o
      2207    1   1  19  -3   15263.   14601.    1733. o
      2208    2   3 -19   1   14611.   13589.    2160. o
      2208    1   1  19   3   14611.   13589.    2160. o
      2209    2  -3 -19  -1   17044.   10711.    1612. o
      2209    1  -1  19  -3   17044.   10711.    1612. o
      2210    2   3 -19   3   34388.   35384.    2074. o
      2210    1   3  19   3   34388.   35384.    2074. o
      2211    2  -3 -19  -3   36429.   32640.    1620. o
      2211    1  -3  19  -3   36429.   32640.    1620. o
      2212    2   3 -19   5    6633.    6261.     907. o
      2212    1   5  19   3    6633.    6261.     907. o
      2213    2  -3 -19  -5    5760.    5329.    1493. o
      2213    1  -5  19  -3    5760.    5329.    1493. o
      2214    2   3 -19   7    9345.   10631.     822. o
      2214    1   7  19   3    9345.   10631.     822. o
      2215    2  -3 -19  -7    9931.    9006.    1494. o
      2215    1  -7  19  -3    9931.    9006.    1494. o
      2216    2   3 -19   9    6224.    5515.     881. o
      2216    1   9  19   3    6224.    5515.     881. o
      2217    2  -3 -19  -9    5790.    6155.    1598. o
      2217    1  -9  19  -3    5790.    6155.    1598. o
      2218    1  -8  20   3     305.    2398.     852. o
      2219    1   8  20  -3     295.    1812.     879. o
      2220    1  -6  20   3     375.    2931.     744. o
      2221    1   6  20  -3     382.    1838.     612. o
      2222    1  -4  20   3     589.    5009.     606. o
      2223    1   4  20  -3     545.    3277.     931. o
      2224    1  -2  20   3    2883.    7167.     764. o
      2225    1   2  20  -3    2970.    6768.    1328. o
      2226    1   2  20   3    2970.    4583.    1304. o
      2227    1  -2  20  -3    2883.    5622.    1356. o
      2228    1   4  20   3     545.    3251.    1091. o
      2229    1  -4  20  -3     589.    4290.    1597. o
      2230    1   6  20   3     382.    3757.    1037. o
      2231    1  -6  20  -3     375.    4903.    1356. o
      2232    1   8  20   3     295.      80.     799. <
      2233    1  -8  20  -3     305.     853.    1279. <
      2234    2   3 -21  -7   12948.   11510.     937. o
      2234    1  -7  21   3   12948.   11510.     937. o
      2235    2  -3 -21   7   14135.   11137.     681. o
      2235    1   7  21  -3   14135.   11137.     681. o
      2236    2   3 -21  -5   62115.   74152.     482. o
      2236    1  -5  21   3   62115.   74152.     482. o
      2237    2  -3 -21   5   60973.   66318.    1289. o
      2237    1   5  21  -3   60973.   66318.    1289. o
      2238    2   3 -21  -3   53432.   53555.     877. o
      2238    1  -3  21   3   53432.   53555.     877. o
      2239    2  -3 -21   3   52754.   50891.    1747. o
      2239    1   3  21  -3   52754.   50891.    1747. o
      2240    2   3 -21  -1  145972.  163650.    1230. o
      2240    1  -1  21   3  145972.  163650.    1230. o
      2241    2  -3 -21   1  150895.  155950.    2804. o
      2241    1   1  21  -3  150895.  155950.    2804. o
      2242    2   3 -21   1  151289.  156243.    2587. o
      2242    1   1  21   3  151289.  156243.    2587. o
      2243    2  -3 -21  -1  145578.  131784.    2673. o
      2243    1  -1  21  -3  145578.  131784.    2673. o
      2244    2   3 -21   3   51072.   52729.    1960. o
      2244    1   3  21   3   51072.   52729.    1960. o
      2245    2  -3 -21  -3   55114.   48546.    1653. o
      2245    1  -3  21  -3   55114.   48546.    1653. o
      2246    2   3 -21   5   61562.   64933.    1453. o
      2246    1   5  21   3   61562.   64933.    1453. o
      2247    2  -3 -21  -5   61526.   66851.    1842. o
      2247    1  -5  21  -3   61526.   66851.    1842. o
      2248    2   3 -21   7   13240.   10684.     835. o
      2248    1   7  21   3   13240.   10684.     835. o
      2249    2  -3 -21  -7   13843.   10898.    1392. o
      2249    1  -7  21  -3   13843.   10898.    1392. o
      2250    1  -8  22   3     912.     240.     906. <
      2251    1   8  22  -3     873.     480.     773. <
      2252    1  -6  22   3    3002.    1146.     588. <
      2253    1   6  22  -3    3210.    1945.     880. o
      2254    1  -4  22   3    1459.    3384.     717. o
      2255    1   4  22  -3    1217.    2744.    1412. <
      2256    1  -2  22   3    7168.    1599.     674. o
      2257    1   2  22  -3    7043.     933.    1283. <
      2258    1   2  22   3    7043.    2078.    1655. <
      2259    1  -2  22  -3    7168.     773.    1682. <
      2260    1   4  22   3    1217.    2185.    1518. <
      2261    1  -4  22  -3    1459.    5995.    1382. o
      2262    1   6  22   3    3210.     746.     854. <
      2263    1  -6  22  -3    3002.    1226.    1280. <
      2264    1   8  22   3     873.     133.     959. <
      2265    1  -8  22  -3     912.    1252.    1252. <
      2266    2   3 -23  -7   16109.   16972.    1009. o
      2266    1  -7  23   3   16109.   16972.    1009. o
      2267    2  -3 -23   7   17186.   15454.     730. o
      2267    1   7  23  -3   17186.   15454.     730. o
      2268    2   3 -23  -5   60153.   71780.     467. o
      2268    1  -5  23   3   60153.   71780.     467. o
      2269    2  -3 -23   5   58778.   69622.    1270. o
      2269    1   5  23  -3   58778.   69622.    1270. o
      2270    2   3 -23  -3   27355.   29682.     749. o
      2270    1  -3  23   3   27355.   29682.     749. o
      2271    2  -3 -23   3   26940.   31094.    1551. o
      2271    1   3  23  -3   26940.   31094.    1551. o
      2272    2   3 -23  -1   55051.   62242.    1099. o
      2272    1  -1  23   3   55051.   62242.    1099. o
      2273    2  -3 -23   1   60573.   61229.    1351. o
      2273    1   1  23  -3   60573.   61229.    1351. o
      2274    2   3 -23   1   60068.   64773.    2338. o
      2274    1   1  23   3   60068.   64773.    2338. o
      2275    2  -3 -23  -1   55555.   55127.    2188. o
      2275    1  -1  23  -3   55555.   55127.    2188. o
      2276    2   3 -23   3   25911.   28403.    1318. o
      2276    1   3  23   3   25911.   28403.    1318. o
      2277    2  -3 -23  -3   28384.   28030.    1387. o
      2277    1  -3  23  -3   28384.   28030.    1387. o
      2278    2   3 -23   5   59766.   58645.    1504. o
      2278    1   5  23   3   59766.   58645.    1504. o
      2279    2  -3 -23  -5   59165.   72473.    1987. o
      2279    1  -5  23  -3   59165.   72473.    1987. o
      2280    2   3 -23   7   16612.   15400.    1044. o
      2280    1   7  23   3   16612.   15400.    1044. o
      2281    2  -3 -23  -7   16683.   16972.    1465. o
      2281    1  -7  23  -3   16683.   16972.    1465. o
      2282    1  -8  24   3     453.    2478.     985. o
      2283    1   8  24  -3     446.     746.     773. <
      2284    1  -6  24   3     141.    2025.     718. o
      2285    1   6  24  -3     166.    -506.     879. <
      2286    1  -4  24   3    1697.    9485.     754. o
      2287    1   4  24  -3    1494.    4530.    1490. o
      2288    1  -2  24   3    5327.     826.     670. <
      2289    1   2  24  -3    5510.    2238.    1255. <
      2290    1   2  24   3    5510.    1545.    1468. <
      2291    1  -2  24  -3    5327.     533.    1201. <
      2292    1   4  24   3    1494.    7407.    1379. o
      2293    1  -4  24  -3    1697.    7247.    1406. o
      2294    1   6  24   3     166.    -213.    1066. <
      2295    1  -6  24  -3     141.    1812.    1225. <
      2296    1   8  24   3     446.    2025.     852. o
      2297    1  -8  24  -3     453.     959.    1226. <
      2298    2   3 -25  -7    9800.   10338.     878. o
      2298    1  -7  25   3    9800.   10338.     878. o
      2299    2  -3 -25   7    9410.   11004.    1356. o
      2299    1   7  25  -3    9410.   11004.    1356. o
      2300    2   3 -25  -5    7003.    9832.     602. o
      2300    1  -5  25   3    7003.    9832.     602. o
      2301    2  -3 -25   5    7472.    9139.    1009. o
      2301    1   5  25  -3    7472.    9139.    1009. o
      2302    2   3 -25  -3   30059.   30002.     747. o
      2302    1  -3  25   3   30059.   30002.     747. o
      2303    2  -3 -25   3   29756.   33252.    1634. o
      2303    1   3  25  -3   29756.   33252.    1634. o
      2304    2   3 -25  -1   13389.   12256.    1016. o
      2304    1  -1  25   3   13389.   12256.    1016. o
      2305    2  -3 -25   1   12568.   12310.    1253. o
      2305    1   1  25  -3   12568.   12310.    1253. o
      2306    2   3 -25   1   12482.   10551.    1337. o
      2306    1   1  25   3   12482.   10551.    1337. o
      2307    2  -3 -25  -1   13475.    8526.    1316. o
      2307    1  -1  25  -3   13475.    8526.    1316. o
      2308    2   3 -25   3   29004.   30668.    1751. o
      2308    1   3  25   3   29004.   30668.    1751. o
      2309    2  -3 -25  -3   30811.   31121.    1330. o
      2309    1  -3  25  -3   30811.   31121.    1330. o
      2310    2   3 -25   5    7491.    6208.    1361. o
      2310    1   5  25   3    7491.    6208.    1361. o
      2311    2  -3 -25  -5    6985.    7167.    1279. o
      2311    1  -5  25  -3    6985.    7167.    1279. o
      2312    2   3 -25   7    9309.    8393.    1094. o
      2312    1   7  25   3    9309.    8393.    1094. o
      2313    2  -3 -25  -7    9902.    8793.    1387. o
      2313    1  -7  25  -3    9902.    8793.    1387. o
      2314    1  -8  26   3     177.    2025.     798. o
      2315    1   8  26  -3     180.     719.     986. <
      2316    1  -6  26   3     289.    1332.     746. <
      2317    1   6  26  -3     301.    1732.     932. <
      2318    1  -4  26   3    2265.    2638.     666. o
      2319    1   4  26  -3    2221.    1652.    1359. <
      2320    1  -2  26   3     826.    1465.     692. o
      2321    1   2  26  -3     862.    1039.     906. <
      2322    1   2  26   3     862.     453.    1519. <
      2323    1  -2  26  -3     826.    -107.    1119. <
      2324    1   4  26   3    2221.    2078.    1119. <
      2325    1  -4  26  -3    2265.    1865.    1625. <
      2326    1   6  26   3     301.    3251.    1731. <
      2327    1  -6  26  -3     289.    1172.    1199. <
      2328    1   8  26   3     180.     187.    1039. <
      2329    1  -8  26  -3     177.     480.    1146. <
      2330    2   3 -27  -7    1520.    2638.     558. o
      2330    1  -7  27   3    1520.    2638.     558. o
      2331    2  -3 -27   7    1470.     693.    1412. <
      2331    1   7  27  -3    1470.     693.    1412. <
      2332    2   3 -27  -5    1686.    4236.     529. o
      2332    1  -5  27   3    1686.    4236.     529. o
      2333    2  -3 -27   5    1868.    5009.    1036. o
      2333    1   5  27  -3    1868.    5009.    1036. o
      2334    2   3 -27  -3    5487.    5862.     692. o
      2334    1  -3  27   3    5487.    5862.     692. o
      2335    2  -3 -27   3    5441.    3917.    1041. o
      2335    1   3  27  -3    5441.    3917.    1041. o
      2336    2   3 -27  -1    2234.    2638.     799. o
      2336    1  -1  27   3    2234.    2638.     799. o
      2337    2  -3 -27   1    2312.    3304.    1172. o
      2337    1   1  27  -3    2312.    3304.    1172. o
      2338    2   3 -27   1    2213.    2291.    1172. <
      2338    1   1  27   3    2213.    2291.    1172. <
      2339    2  -3 -27  -1    2334.       0.    1652. <
      2339    1  -1  27  -3    2334.       0.    1652. <
      2340    2   3 -27   3    5329.    6022.     985. o
      2340    1   3  27   3    5329.    6022.     985. o
      2341    2  -3 -27  -3    5600.    4050.    1041. o
      2341    1  -3  27  -3    5600.    4050.    1041. o
      2342    2   3 -27   5    1885.    1679.    1252. <
      2342    1   5  27   3    1885.    1679.    1252. <
      2343    2  -3 -27  -5    1668.    2211.    1359. <
      2343    1  -5  27  -3    1668.    2211.    1359. <
      2344    2   3 -27   7    1423.    1785.    1012. <
      2344    1   7  27   3    1423.    1785.    1012. <
      2345    2  -3 -27  -7    1566.    2451.    1092. o
      2345    1  -7  27  -3    1566.    2451.    1092. o
      2346    1  -8  28   3     242.     986.     746. <
      2347    1   8  28  -3     225.   -2132.    1358. <
      2348    1  -6  28   3     263.    1732.     585. o
      2349    1   6  28  -3     278.    2904.    1331. o
      2350    1  -4  28   3    1825.    3490.     691. o
      2351    1   4  28  -3    1783.    2611.    1358. <
      2352    1  -2  28   3     141.    4316.     742. o
      2353    1   2  28   3     148.    4823.    1623. o
      2354    1  -2  28  -3     141.    3677.    1197. o
      2355    1   4  28   3    1783.    -320.    1546. <
      2356    1  -4  28  -3    1826.    1545.    1599. <
      2357    1   6  28   3     278.    -906.    1758. <
      2358    1  -6  28  -3     263.    1759.    1092. <
      2359    1   8  28   3     225.    -293.    1066. <
      2360    1  -8  28  -3     242.     133.    1332. <
      2361    2   3 -29  -7   27168.   25259.     712. o
      2361    1  -7  29   3   27168.   25259.     712. o
      2362    2  -3 -29   7   28426.   22461.    1309. o
      2362    1   7  29  -3   28426.   22461.    1309. o
      2363    2   3 -29  -5   84838.   86248.     870. o
      2363    1  -5  29   3   84838.   86248.     870. o
      2364    2  -3 -29   5   83598.  100157.    1896. o
      2364    1   5  29  -3   83598.  100157.    1896. o
      2365    2   3 -29  -3   83570.   88886.     913. o
      2365    1  -3  29   3   83570.   88886.     913. o
      2366    2  -3 -29   3   83692.   78974.    1764. o
      2366    1   3  29  -3   83692.   78974.    1764. o
      2367    2   3 -29  -1  149410.  159520.    1437. o
      2367    1  -1  29   3  149410.  159520.    1437. o
      2368    2  -3 -29   1  152776.  168127.    1695. o
      2368    1   1  29  -3  152776.  168127.    1695. o
      2369    2   3 -29   1  153338.  181422.    2093. o
      2369    1   1  29   3  153338.  181422.    2093. o
      2370    2  -3 -29  -1  148849.  132796.    3201. o
      2370    1  -1  29  -3  148849.  132796.    3201. o
      2371    2   3 -29   3   83992.   89579.    1877. o
      2371    1   3  29   3   83992.   89579.    1877. o
      2372    2  -3 -29  -3   83271.   87527.    1647. o
      2372    1  -3  29  -3   83271.   87527.    1647. o
      2373    2   3 -29   5   84829.   70581.    1890. o
      2373    1   5  29   3   84829.   70581.    1890. o
      2374    2  -3 -29  -5   83606.   99304.    2055. o
      2374    1  -5  29  -3   83606.   99304.    2055. o
      2375    2   3 -29   7   28058.   21928.    1492. o
      2375    1   7  29   3   28058.   21928.    1492. o
      2376    2  -3 -29  -7   27536.   27470.    1386. o
      2376    1  -7  29  -3   27536.   27470.    1386. o
      2377    1  -6  30   3     548.    -320.     613. <
      2378    1   6  30  -3     597.   -1092.    1359. <
      2379    1  -4  30   3     484.    2052.     745. o
      2380    1   4  30  -3     461.    1465.    1412. <
      2381    1  -2  30   3    2199.    2984.     745. o
      2382    1   2  30   3    2128.    1439.     960. <
      2383    1  -2  30  -3    2199.    4903.    1437. o
      2384    1   4  30   3     461.    1785.    1119. <
      2385    1  -4  30  -3     484.     799.    1652. <
      2386    1   6  30   3     597.    2425.    1891. <
      2387    1  -6  30  -3     548.    -799.    1305. <
      2388    2   3 -31  -7    6170.    5968.     746. o
      2388    1  -7  31   3    6170.    5968.     746. o
      2389    2  -3 -31   7    6641.    7460.    1491. o
      2389    1   7  31  -3    6641.    7460.    1491. o
      2390    2   3 -31  -5   34646.   39807.     846. o
      2390    1  -5  31   3   34646.   39807.     846. o
      2391    2  -3 -31   5   34136.   36849.    1771. o
      2391    1   5  31  -3   34136.   36849.    1771. o
      2392    2   3 -31  -3   41897.   43244.     916. o
      2392    1  -3  31   3   41897.   43244.     916. o
      2393    2  -3 -31   3   41851.   45669.    1760. o
      2393    1   3  31  -3   41851.   45669.    1760. o
      2394    2   3 -31  -1  108023.  107537.    1554. o
      2394    1  -1  31   3  108023.  107537.    1554. o
      2395    2  -3 -31   1  108567.  119634.    1760. o
      2395    1   1  31  -3  108567.  119634.    1760. o
      2396    2   3 -31   1  108742.  116650.    3638. o
      2396    1   1  31   3  108742.  116650.    3638. o
      2397    2  -3 -31  -1  107848.   94321.    2542. o
      2397    1  -1  31  -3  107848.   94321.    2542. o
      2398    2   3 -31   3   41738.   39967.    1373. o
      2398    1   3  31   3   41738.   39967.    1373. o
      2399    2  -3 -31  -3   42010.   44070.    1368. o
      2399    1  -3  31  -3   42010.   44070.    1368. o
      2400    2   3 -31   5   34254.   37249.    1796. o
      2400    1   5  31   3   34254.   37249.    1796. o
      2401    2  -3 -31  -5   34528.   45162.    1773. o
      2401    1  -5  31  -3   34528.   45162.    1773. o
      2402    2   3 -31   7    6607.    4423.    1334. o
      2402    1   7  31   3    6607.    4423.    1334. o
      2403    2  -3 -31  -7    6204.    4583.    1148. o
      2403    1  -7  31  -3    6204.    4583.    1148. o
      2404    1  -6  32   3     273.     879.     719. <
      2405    1   6  32  -3     256.     560.    1039. <
      2406    1  -4  32   3    1649.    1146.     693. <
      2407    1   4  32  -3    1856.      27.    1039. <
      2408    1  -2  32   3     576.    1492.     826. <
      2409    1   2  32   3     632.    1119.     959. <
      2410    1  -2  32  -3     576.     320.    1412. <
      2411    1   4  32   3    1856.    -133.    1066. <
      2412    1  -4  32  -3    1649.     693.    1572. <
      2413    1   6  32   3     256.    2398.    1651. <
      2414    1  -6  32  -3     273.     666.    1705. <
      2415    2   3 -33  -7    3483.    4876.     690. o
      2415    1  -7  33   3    3483.    4876.     690. o
      2416    2  -3 -33   7    3242.    2958.    1066. o
      2416    1   7  33  -3    3242.    2958.    1066. o
      2417    2   3 -33  -5    3601.    3037.     640. o
      2417    1  -5  33   3    3601.    3037.     640. o
      2418    2  -3 -33   5    4009.    2798.    1120. o
      2418    1   5  33  -3    4009.    2798.    1120. o
      2419    2   3 -33  -3   11638.   13722.     682. o
      2419    1  -3  33   3   11638.   13722.     682. o
      2420    2  -3 -33   3   11628.   13002.    1569. o
      2420    1   3  33  -3   11628.   13002.    1569. o
      2421    2   3 -33  -1    5357.    6848.    1090. o
      2421    1  -1  33   3    5357.    6848.    1090. o
      2422    2  -3 -33   1    5058.    6368.    1144. o
      2422    1   1  33  -3    5058.    6368.    1144. o
      2423    2   3 -33   1    5175.    4663.    1812. o
      2423    1   1  33   3    5175.    4663.    1812. o
      2424    2  -3 -33  -1    5240.    4370.    1200. o
      2424    1  -1  33  -3    5240.    4370.    1200. o
      2425    2   3 -33   3   11600.   12123.    1011. o
      2425    1   3  33   3   11600.   12123.    1011. o
      2426    2  -3 -33  -3   11665.   11031.    1121. o
      2426    1  -3  33  -3   11665.   11031.    1121. o
      2427    2   3 -33   5    4162.    2585.    1573. <
      2427    1   5  33   3    4162.    2585.    1573. <
      2428    2  -3 -33  -5    3448.     -53.    1546. <
      2428    1  -5  33  -3    3448.     -53.    1546. <
      2429    2   3 -33   7    3170.    1679.    1360. <
      2429    1   7  33   3    3170.    1679.    1360. <
      2430    2  -3 -33  -7    3555.    3517.    1386. o
      2430    1  -7  33  -3    3555.    3517.    1386. o
      2431    1  -6  34   3     348.     906.     586. <
      2432    1   6  34  -3     350.    2958.    1411. o
      2433    1  -4  34   3     490.    1066.     746. <
      2434    1   4  34  -3     515.     560.    1412. <
      2435    1  -2  34   3    2296.     959.     640. <
      2436    1   2  34   3    2231.    1492.     933. <
      2437    1  -2  34  -3    2296.    1625.    1386. <
      2438    1   4  34   3     515.   -1226.    1412. <
      2439    1  -4  34  -3     490.     506.    1012. <
      2440    1   6  34   3     350.    2798.    1625. <
      2441    1  -6  34  -3     348.   -1279.    1652. <
      2442    2   3 -35  -7    1255.     853.     799. <
      2442    1  -7  35   3    1255.     853.     799. <
      2443    2  -3 -35   7    1525.    2345.    1598. <
      2443    1   7  35  -3    1525.    2345.    1598. <
      2444    2   3 -35  -5    6808.   10391.     842. o
      2444    1  -5  35   3    6808.   10391.     842. o
      2445    2  -3 -35   5    6659.    5409.    1573. o
      2445    1   5  35  -3    6659.    5409.    1573. o
      2446    2   3 -35  -3    3905.    5196.     717. o
      2446    1  -3  35   3    3905.    5196.     717. o
      2447    2  -3 -35   3    3883.    4476.    1145. o
      2447    1   3  35  -3    3883.    4476.    1145. o
      2448    2   3 -35  -1   16682.   19450.    1214. o
      2448    1  -1  35   3   16682.   19450.    1214. o
      2449    2  -3 -35   1   16298.   17159.    1356. o
      2449    1   1  35  -3   16298.   17159.    1356. o
      2450    2   3 -35   1   16943.   18411.    1995. o
      2450    1   1  35   3   16943.   18411.    1995. o
      2451    2  -3 -35  -1   16036.   13376.    1340. o
      2451    1  -1  35  -3   16036.   13376.    1340. o
      2452    2   3 -35   3    3830.    3997.    1385. o
      2452    1   3  35   3    3830.    3997.    1385. o
      2453    2  -3 -35  -3    3958.    3570.     986. o
      2453    1  -3  35  -3    3958.    3570.     986. o
      2454    2   3 -35   5    6507.    7434.    1117. o
      2454    1   5  35   3    6507.    7434.    1117. o
      2455    2  -3 -35  -5    6959.    8420.    1143. o
      2455    1  -5  35  -3    6959.    8420.    1143. o
      2456    2   3 -35   7    1435.     320.    1252. <
      2456    1   7  35   3    1435.     320.    1252. <
      2457    2  -3 -35  -7    1345.    2611.    1731. <
      2457    1  -7  35  -3    1345.    2611.    1731. <
      2458    1  -6  36   3     787.     160.     719. <
      2459    1   6  36  -3     869.    -826.    1519. <
      2460    1  -4  36   3     256.     799.     639. <
      2461    1   4  36  -3     242.    -213.    1012. <
      2462    1  -2  36   3     942.     746.     773. <
      2463    1   2  36   3    1125.    -613.    1279. <
      2464    1  -2  36  -3     942.     107.    1332. <
      2465    1   4  36   3     242.     773.     932. <
      2466    1  -4  36  -3     256.    2105.    1012. o
      2467    1   6  36   3     869.     666.    1519. <
      2468    1  -6  36  -3     787.    -453.    1172. <
      2469    2   3 -37  -5   30117.   34318.     836. o
      2469    1  -5  37   3   30117.   34318.     836. o
      2470    2  -3 -37   5   29083.   29975.    1835. o
      2470    1   5  37  -3   29083.   29975.    1835. o
      2471    2   3 -37  -3   32103.   30748.     945. o
      2471    1  -3  37   3   32103.   30748.     945. o
      2472    2  -3 -37   3   31892.   35331.    2009. o
      2472    1   3  37  -3   31892.   35331.    2009. o
      2473    2   3 -37  -1   62510.   78388.    1392. o
      2473    1  -1  37   3   62510.   78388.    1392. o
      2474    2  -3 -37   1   63074.   65572.    1680. o
      2474    1   1  37  -3   63074.   65572.    1680. o
      2475    2   3 -37   1   62704.   67091.    2366. o
      2475    1   1  37   3   62704.   67091.    2366. o
      2476    2  -3 -37  -1   62880.   55660.    1873. o
      2476    1  -1  37  -3   62880.   55660.    1873. o
      2477    2   3 -37   3   31367.   34691.    1526. o
      2477    1   3  37   3   31367.   34691.    1526. o
      2478    2  -3 -37  -3   32628.   31360.    1287. o
      2478    1  -3  37  -3   32628.   31360.    1287. o
      2479    2   3 -37   5   28967.   27657.    1658. o
      2479    1   5  37   3   28967.   27657.    1658. o
      2480    2  -3 -37  -5   30234.   33039.    1341. o
      2480    1  -5  37  -3   30234.   33039.    1341. o
      2481    1  -6  38   3     309.     453.     666. <
      2482    1   6  38  -3     333.    -107.    1039. <
      2483    1  -4  38   3    1946.     746.     773. <
      2484    1   4  38  -3    1840.     400.    1652. <
      2485    1  -2  38   3     405.     266.     613. <
      2486    1   2  38   3     362.     533.    1226. <
      2487    1  -2  38  -3     405.    2771.    1305. o
      2488    1   4  38   3    1840.    2052.     852. o
      2489    1  -4  38  -3    1946.     986.    1039. <
      2490    1   6  38   3     333.    1465.    1039. <
      2491    1  -6  38  -3     309.    1066.    1119. <
      2492    2   3 -39  -5    1962.    1545.     906. <
      2492    1  -5  39   3    1962.    1545.     906. <
      2493    2  -3 -39   5    1686.    2185.    1305. <
      2493    1   5  39  -3    1686.    2185.    1305. <
      2494    2   3 -39  -3    2231.    2211.     773. o
      2494    1  -3  39   3    2231.    2211.     773. o
      2495    2  -3 -39   3    2181.    1412.    1679. <
      2495    1   3  39  -3    2181.    1412.    1679. <
      2496    2   3 -39  -1    1222.    1252.    1146. <
      2496    1  -1  39   3    1222.    1252.    1146. <
      2497    2  -3 -39   1    1510.    1039.    1093. <
      2497    1   1  39  -3    1510.    1039.    1093. <
      2498    2   3 -39   1    1217.    1279.    1519. <
      2498    1   1  39   3    1217.    1279.    1519. <
      2499    2  -3 -39  -1    1515.     773.    1279. <
      2499    1  -1  39  -3    1515.     773.    1279. <
      2500    2   3 -39   3    2057.    2238.     932. o
      2500    1   3  39   3    2057.    2238.     932. o
      2501    2  -3 -39  -3    2354.    1519.    1306. <
      2501    1  -3  39  -3    2354.    1519.    1306. <
      2502    2   3 -39   5    1666.    1332.     959. <
      2502    1   5  39   3    1666.    1332.     959. <
      2503    2  -3 -39  -5    1982.    1439.    1466. <
      2503    1  -5  39  -3    1982.    1439.    1466. <
      2504    1  -6  40   3     177.    1092.     692. <
      2505    1   6  40  -3     187.    -107.    1172. <
      2506    1  -4  40   3     475.     480.     826. <
      2507    1   4  40  -3     411.     586.    1705. <
      2508    1  -2  40   3    2610.     693.     880. <
      2509    1   2  40   3    2705.     453.    1359. <
      2510    1  -2  40  -3    2610.    1146.    1306. <
      2511    1   4  40   3     411.    -933.    1305. <
      2512    1  -4  40  -3     475.     133.    1412. <
      2513    1   6  40   3     187.     879.    1012. <
      2514    1  -6  40  -3     177.    1332.    1519. <
      2515    2   3 -41  -5    3748.    3304.     800. o
      2515    1  -5  41   3    3748.    3304.     800. o
      2516    2  -3 -41   5    3958.    3837.    1226. o
      2516    1   5  41  -3    3958.    3837.    1226. o
      2517    2   3 -41  -3    6525.    9965.     951. o
      2517    1  -3  41   3    6525.    9965.     951. o
      2518    2  -3 -41   3    6500.    9112.    1862. o
      2518    1   3  41  -3    6500.    9112.    1862. o
      2519    2   3 -41  -1    2722.    2744.    1146. o
      2519    1  -1  41   3    2722.    2744.    1146. o
      2520    2  -3 -41   1    2592.    3890.    1305. o
      2520    1   1  41  -3    2592.    3890.    1305. o
      2521    2   3 -41   1    2695.    2425.    1332. <
      2521    1   1  41   3    2695.    2425.    1332. <
      2522    2  -3 -41  -1    2618.    2798.    1385. o
      2522    1  -1  41  -3    2618.    2798.    1385. o
      2523    2   3 -41   3    6436.    7141.     958. o
      2523    1   3  41   3    6436.    7141.     958. o
      2524    2  -3 -41  -3    6588.    8473.    1383. o
      2524    1  -3  41  -3    6588.    8473.    1383. o
      2525    2   3 -41   5    3983.    2505.    1014. o
      2525    1   5  41   3    3983.    2505.    1014. o
      2526    2  -3 -41  -5    3722.    4503.    1438. o
      2526    1  -5  41  -3    3722.    4503.    1438. o
      2527    1  -4  42   3     914.    1625.     932. <
      2528    1   4  42  -3     882.    1439.    1812. <
      2529    1  -2  42   3     295.     906.     852. <
      2530    1   2  42   3     290.     693.    1146. <
      2531    1  -2  42  -3     295.     -27.    1252. <
      2532    1   4  42   3     882.     533.     959. <
      2533    1  -4  42  -3     914.     346.    1412. <
      2534    2   3 -43  -5    9779.    9912.     906. o
      2534    1  -5  43   3    9779.    9912.     906. o
      2535    2  -3 -43   5    9304.    8366.    1494. o
      2535    1   5  43  -3    9304.    8366.    1494. o
      2536    2   3 -43  -3    8608.    9272.     824. o
      2536    1  -3  43   3    8608.    9272.     824. o
      2537    2  -3 -43   3    8645.    9326.    1918. o
      2537    1   3  43  -3    8645.    9326.    1918. o
      2538    2   3 -43  -1   15128.   19291.    1155. o
      2538    1  -1  43   3   15128.   19291.    1155. o
      2539    2  -3 -43   1   15525.   14708.    1335. o
      2539    1   1  43  -3   15525.   14708.    1335. o
      2540    2   3 -43   1   15143.   13029.    1073. o
      2540    1   1  43   3   15143.   13029.    1073. o
      2541    2  -3 -43  -1   15510.   15640.    1572. o
      2541    1  -1  43  -3   15510.   15640.    1572. o
      2542    2   3 -43   3    8738.    8153.     987. o
      2542    1   3  43   3    8738.    8153.     987. o
      2543    2  -3 -43  -3    8515.   10045.    1436. o
      2543    1  -3  43  -3    8515.   10045.    1436. o
      2544    2   3 -43   5    9393.    6261.    1470. o
      2544    1   5  43   3    9393.    6261.    1470. o
      2545    2  -3 -43  -5    9691.   11271.    1168. o
      2545    1  -5  43  -3    9691.   11271.    1168. o
      2546    1  -4  44   3    1030.     560.     879. <
      2547    1   4  44  -3     953.    1519.    1812. <
      2548    1  -2  44   3     125.     187.     666. <
      2549    1   2  44  -3     104.     826.    1865. <
      2550    1   2  44   3     104.     160.    1252. <
      2551    1  -2  44  -3     125.     -27.    1279. <
      2552    1   4  44   3     953.    1039.     933. <
      2553    1  -4  44  -3    1030.     426.    1013. <
      2554    2   3 -45  -5   15411.   15560.    1012. o
      2554    1  -5  45   3   15411.   15560.    1012. o
      2555    2  -3 -45   5   15085.   10764.    1475. o
      2555    1   5  45  -3   15085.   10764.    1475. o
      2556    2   3 -45  -3   19884.   22008.     892. o
      2556    1  -3  45   3   19884.   22008.     892. o
      2557    2  -3 -45   3   20026.   13882.    1853. o
      2557    1   3  45  -3   20026.   13882.    1853. o
      2558    2   3 -45  -1   33026.   43777.    1328. o
      2558    1  -1  45   3   33026.   43777.    1328. o
      2559    2  -3 -45   1   33045.   36823.    1603. o
      2559    1   1  45  -3   33045.   36823.    1603. o
      2560    2   3 -45   1   33169.   37142.    1548. o
      2560    1   1  45   3   33169.   37142.    1548. o
      2561    2  -3 -45  -1   32902.   20703.    1340. o
      2561    1  -1  45  -3   32902.   20703.    1340. o
      2562    2   3 -45   3   20378.   22062.    1137. o
      2562    1   3  45   3   20378.   22062.    1137. o
      2563    2  -3 -45  -3   19531.   19424.    1173. o
      2563    1  -3  45  -3   19531.   19424.    1173. o
      2564    2   3 -45   5   15042.   15081.    1492. o
      2564    1   5  45   3   15042.   15081.    1492. o
      2565    2  -3 -45  -5   15454.   16360.    1222. o
      2565    1  -5  45  -3   15454.   16360.    1222. o
      2566    1  -4  46   3     151.    -959.     906. <
      2567    1   4  46  -3     149.    1812.    1678. <
      2568    1  -2  46   3     772.    1599.     826. <
      2569    1   2  46  -3     768.     933.    1705. <
      2570    1   2  46   3     768.     -80.     906. <
      2571    1  -2  46  -3     772.    1146.    1306. <
      2572    1   4  46   3     149.     293.    1306. <
      2573    1  -4  46  -3     151.    1066.     959. <
      2574    2   3 -47  -3     141.     586.     639. <
      2574    1  -3  47   3     141.     586.     639. <
      2575    2  -3 -47   3     155.    -799.    1439. <
      2575    1   3  47  -3     155.    -799.    1439. <
      2576    2   3 -47  -1    2178.    2718.    1065. o
      2576    1  -1  47   3    2178.    2718.    1065. o
      2577    2  -3 -47   1    2069.    1679.    1066. <
      2577    1   1  47  -3    2069.    1679.    1066. <
      2578    2   3 -47   1    2253.    2664.     986. o
      2578    1   1  47   3    2253.    2664.     986. o
      2579    2  -3 -47  -1    1994.    1306.    1119. <
      2579    1  -1  47  -3    1994.    1306.    1119. <
      2580    2   3 -47   3     188.     586.     879. <
      2580    1   3  47   3     188.     586.     879. <
      2581    2  -3 -47  -3     109.     853.     959. <
      2581    1  -3  47  -3     109.     853.     959. <
      2582    1  -4  48   3     493.    -346.     773. <
      2583    1   4  48  -3     519.     826.    1652. <
      2584    1  -2  48   3      32.    1012.     799. <
      2585    1   2  48  -3      33.     426.    1679. <
      2586    1   2  48   3      33.    -879.     932. <
      2587    1  -2  48  -3      32.    1439.     932. <
      2588    1   4  48   3     519.    2185.    1332. <
      2589    1  -4  48  -3     493.    1279.    1385. <
      2590    2   3 -49  -3      79.     506.     933. <
      2590    1  -3  49   3      79.     506.     933. <
      2591    2   3 -49  -1     114.     719.     986. <
      2591    1  -1  49   3     114.     719.     986. <
      2592    2  -3 -49   1     113.     613.     959. <
      2592    1   1  49  -3     113.     613.     959. <
      2593    2   3 -49   1     120.    -639.    1226. <
      2593    1   1  49   3     120.    -639.    1226. <
      2594    2  -3 -49  -1     107.     959.    1092. <
      2594    1  -1  49  -3     107.     959.    1092. <
      2595    2   3 -49   3      65.    -346.     853. <
      2595    1   3  49   3      65.    -346.     853. <
      2596    2  -3 -49  -3      90.     773.    1279. <
      2596    1  -3  49  -3      90.     773.    1279. <
      2597    1  -2  50   3     640.    1199.     852. <
      2598    1   2  50  -3     649.   -1092.    1545. <
      2599    1   2  50   3     649.    -560.    1119. <
      2600    1  -2  50  -3     640.    -453.     826. <
      2601    2   3 -51  -1   14901.   15667.    1303. o
      2601    1  -1  51   3   14901.   15667.    1303. o
      2602    2  -3 -51   1   14773.   12416.    1285. o
      2602    1   1  51  -3   14773.   12416.    1285. o
      2603    2   3 -51   1   14827.   12656.    1126. o
      2603    1   1  51   3   14827.   12656.    1126. o
      2604    2  -3 -51  -1   14848.   12017.    1393. o
      2604    1  -1  51  -3   14848.   12017.    1393. o
      2605    2   4   0  -8   86975.   93682.    1378. o
      2605    1  -8   0   4   86975.   93682.    1378. o
      2606    2  -4   0   8   86690.   89099.    1590. o
      2606    1   8   0  -4   86690.   89099.    1590. o
      2607    2   4   0  -6   47228.   54008.    1344. o
      2607    1  -6   0   4   47228.   54008.    1344. o
      2608    2  -4   0   6   48406.   50944.    1088. o
      2608    1   6   0  -4   48406.   50944.    1088. o
      2609    2   4   0  -4  586154.  614581.   12268. o
      2609    1  -4   0   4  586154.  614581.   12268. o
      2610    2  -4   0   4  585919.  635950.   12462. o
      2610    1   4   0  -4  585919.  635950.   12462. o
      2611    2   4   0  -2  163295.  173003.    1704. o
      2611    1  -2   0   4  163295.  173003.    1704. o
      2612    2  -4   0   2  161950.  168899.    1895. o
      2612    1   2   0  -4  161950.  168899.    1895. o
      2613    2   4   0   0 1333510.  898984.   15964. o
      2613    1   0   0   4 1333510.  898984.   15964. o
      2614    2   4   0   2  169405.  182062.    4120. o
      2614    1   2   0   4  169405.  182062.    4120. o
      2615    2  -4   0  -2  155840.  160986.    2526. o
      2615    1  -2   0  -4  155840.  160986.    2526. o
      2616    2   4   0   4  585334.  614182.    2863. o
      2616    1   4   0   4  585334.  614182.    2863. o
      2617    2  -4   0  -4  586739.  666618.    2835. o
      2617    1  -4   0  -4  586739.  666618.    2835. o
      2618    2   4   0   6   47386.   49559.    1338. o
      2618    1   6   0   4   47386.   49559.    1338. o
      2619    2  -4   0  -6   48247.   52623.    3018. o
      2619    1  -6   0  -4   48247.   52623.    3018. o
      2620    2   4   0   8   87180.   98691.    1731. o
      2620    1   8   0   4   87180.   98691.    1731. o
      2621    2  -4   0  -8   86484.   84356.    3398. o
      2621    1  -8   0  -4   86484.   84356.    3398. o
      2622    1  -9   1   4     859.    1359.     826. <
      2623    1   9   1  -4     834.     639.     773. <
      2624    1  -7   1   4    1803.     266.     800. <
      2625    1   7   1  -4    1876.     746.     693. <
      2626    1  -5   1   4    1650.     -80.     693. <
      2627    1   5   1  -4    1535.     213.     773. <
      2628    1  -3   1   4    6113.    2078.     540. o
      2629    1   3   1  -4    6252.    2984.     724. o
      2630    1  -1   1   4   11753.   18198.     652. o
      2631    1   1   1   4   11772.    8713.    1418. o
      2632    1  -1   1  -4   11753.   11990.     825. o
      2633    1   3   1   4    6252.    2318.    1229. <
      2634    1  -3   1  -4    6113.    2078.    1335. <
      2635    1   5   1   4    1535.     933.     879. <
      2636    1  -5   1  -4    1650.     959.    1865. <
      2637    1   7   1   4    1876.     666.     747. <
      2638    1  -7   1  -4    1803.     906.    1226. <
      2639    1   9   1   4     834.     -27.     693. <
      2640    1  -9   1  -4     859.    1998.    2158. <
      2641    2   4  -2  -8    1062.    3810.     930. o
      2641    1  -8   2   4    1062.    3810.     930. o
      2642    2  -4  -2   8     920.    2984.     798. o
      2642    1   8   2  -4     920.    2984.     798. o
      2643    2   4  -2  -6   15297.   18598.     862. o
      2643    1  -6   2   4   15297.   18598.     862. o
      2644    2  -4  -2   6   15865.   18252.     622. o
      2644    1   6   2  -4   15865.   18252.     622. o
      2645    2   4  -2  -4   14248.   23873.     730. o
      2645    1  -4   2   4   14248.   23873.     730. o
      2646    2  -4  -2   4   14296.   25152.     565. o
      2646    1   4   2  -4   14296.   25152.     565. o
      2647    2   4  -2  -2   38523.   38661.     851. o
      2647    1  -2   2   4   38523.   38661.     851. o
      2648    2  -4  -2   2   37592.   39274.     968. o
      2648    1   2   2  -4   37592.   39274.     968. o
      2649    2   4  -2   0   36501.   28137.     810. o
      2649    1   0   2   4   36501.   28137.     810. o
      2650    2   4  -2   2   40639.   42578.    2121. o
      2650    1   2   2   4   40639.   42578.    2121. o
      2651    2  -4  -2  -2   35476.   38928.    1333. o
      2651    1  -2   2  -4   35476.   38928.    1333. o
      2652    2   4  -2   4   14413.   13802.    1015. o
      2652    1   4   2   4   14413.   13802.    1015. o
      2653    2  -4  -2  -4   14130.   13242.    1281. o
      2653    1  -4   2  -4   14130.   13242.    1281. o
      2654    2   4  -2   6   15892.   16839.     848. o
      2654    1   6   2   4   15892.   16839.     848. o
      2655    2  -4  -2  -6   15270.   15347.    1892. o
      2655    1  -6   2  -4   15270.   15347.    1892. o
      2656    2   4  -2   8     944.     586.     959. <
      2656    1   8   2   4     944.     586.     959. <
      2657    2  -4  -2  -8    1038.     266.    1732. <
      2657    1  -8   2  -4    1038.     266.    1732. <
      2658    1  -9   3   4     489.    1759.     932. <
      2659    1   9   3  -4     488.    1838.     745. o
      2660    1  -7   3   4     702.    2238.     585. o
      2661    1   7   3  -4     682.    2265.     692. o
      2662    1  -5   3   4    1413.     533.     666. <
      2663    1   5   3  -4    1509.     586.     640. <
      2664    1  -3   3   4    1566.    4210.     770. o
      2665    1   3   3  -4    1474.    3890.     690. o
      2666    1  -1   3   4    7742.   14175.     662. o
      2667    1   1   3   4    8045.   12176.    1431. o
      2668    1  -1   3  -4    7742.   17559.    1085. o
      2669    1   3   3   4    1474.    3144.    1091. o
      2670    1  -3   3  -4    1566.    3970.    1144. o
      2671    1   5   3   4    1509.     560.     826. <
      2672    1  -5   3  -4    1413.    3570.    1838. <
      2673    1   7   3   4     682.    2078.     879. o
      2674    1  -7   3  -4     702.    1039.    1758. <
      2675    1   9   3   4     488.     933.     959. <
      2676    1  -9   3  -4     489.     187.    1572. <
      2677    2   4  -4  -8   41033.   45189.     851. o
      2677    1  -8   4   4   41033.   45189.     851. o
      2678    2  -4  -4   8   40684.   41805.     811. o
      2678    1   8   4  -4   40684.   41805.     811. o
      2679    2   4  -4  -6    1368.    1812.     799. o
      2679    1  -6   4   4    1368.    1812.     799. o
      2680    2  -4  -4   6    1746.    1812.     586. o
      2680    1   6   4  -4    1746.    1812.     586. o
      2681    2   4  -4  -4  152251.  179637.    3502. o
      2681    1  -4   4   4  152251.  179637.    3502. o
      2682    2  -4  -4   4  151856.  161679.     898. o
      2682    1   4   4  -4  151856.  161679.     898. o
      2683    2   4  -4  -2    1234.    1012.     666. <
      2683    1  -2   4   4    1234.    1012.     666. <
      2684    2  -4  -4   2    1153.    1226.    1092. <
      2684    1   2   4  -4    1153.    1226.    1092. <
      2685    2   4  -4   0  247985.  232633.    2203. o
      2685    1   0   4   4  247985.  232633.    2203. o
      2686    2  -4  -4   0  243563.  215660.    3145. o
      2686    1   0   4  -4  243563.  215660.    3145. o
      2687    2   4  -4   2     908.    1972.    1625. <
      2687    1   2   4   4     908.    1972.    1625. <
      2688    2  -4  -4  -2    1478.    1359.     906. <
      2688    1  -2   4  -4    1478.    1359.     906. <
      2689    2   4  -4   4  150876.  160693.    1412. o
      2689    1   4   4   4  150876.  160693.    1412. o
      2690    2  -4  -4  -4  153231.  165649.    2104. o
      2690    1  -4   4  -4  153231.  165649.    2104. o
      2691    2   4  -4   6    2379.     613.     907. <
      2691    1   6   4   4    2379.     613.     907. <
      2692    2  -4  -4  -6     735.     400.    1545. <
      2692    1  -6   4  -4     735.     400.    1545. <
      2693    2   4  -4   8   40401.   38794.     950. o
      2693    1   8   4   4   40401.   38794.     950. o
      2694    2  -4  -4  -8   41315.   48040.    2120. o
      2694    1  -8   4  -4   41315.   48040.    2120. o
      2695    1  -9   5   4     782.     853.     826. <
      2696    1   9   5  -4     785.      53.     666. <
      2697    1  -7   5   4    2626.     613.     747. <
      2698    1   7   5  -4    2653.    1119.     561. <
      2699    1  -5   5   4    2096.     853.     720. <
      2700    1   5   5  -4    2082.     133.     720. <
      2701    1  -3   5   4    5374.    5302.     666. o
      2702    1   3   5  -4    5659.    4796.     668. o
      2703    1  -1   5   4    4390.   13748.     568. o
      2704    1   1   5  -4    4078.   16733.    1355. o
      2705    1   1   5   4    4078.   13802.    1635. o
      2706    1  -1   5  -4    4390.   14894.    1659. o
      2707    1   3   5   4    5659.    4236.    1254. o
      2708    1  -3   5  -4    5374.    3410.    1227. o
      2709    1   5   5   4    2082.    1066.     773. <
      2710    1  -5   5  -4    2096.    1279.    1439. <
      2711    1   7   5   4    2653.     586.     880. <
      2712    1  -7   5  -4    2626.    -906.    1652. <
      2713    1   9   5   4     785.     986.     799. <
      2714    1  -9   5  -4     782.    1226.    1892. <
      2715    2   4  -6  -8   15104.   16200.     740. o
      2715    1  -8   6   4   15104.   16200.     740. o
      2716    2  -4  -6   8   14875.   16839.     923. o
      2716    1   8   6  -4   14875.   16839.     923. o
      2717    2   4  -6  -6    8217.    8846.     744. o
      2717    1  -6   6   4    8217.    8846.     744. o
      2718    2  -4  -6   6    8692.    7407.     723. o
      2718    1   6   6  -4    8692.    7407.     723. o
      2719    2   4  -6  -4   93541.  107750.     642. o
      2719    1  -4   6   4   93541.  107750.     642. o
      2720    2  -4  -6   4   93200.  109082.     611. o
      2720    1   4   6  -4   93200.  109082.     611. o
      2721    2   4  -6  -2   14379.   13988.     642. o
      2721    1  -2   6   4   14379.   13988.     642. o
      2722    2  -4  -6   2   12941.    9992.     942. o
      2722    1   2   6  -4   12941.    9992.     942. o
      2723    2   4  -6   0  237645.  235510.    1731. o
      2723    1   0   6   4  237645.  235510.    1731. o
      2724    2  -4  -6   0  245612.  250565.    2733. o
      2724    1   0   6  -4  245612.  250565.    2733. o
      2725    2   4  -6   2   15521.   12736.    1844. o
      2725    1   2   6   4   15521.   12736.    1844. o
      2726    2  -4  -6  -2   11799.   12496.     984. o
      2726    1  -2   6  -4   11799.   12496.     984. o
      2727    2   4  -6   4   92354.   93176.    1398. o
      2727    1   4   6   4   92354.   93176.    1398. o
      2728    2  -4  -6  -4   94387.   93975.    1924. o
      2728    1  -4   6  -4   94387.   93975.    1924. o
      2729    2   4  -6   6    8240.    7620.     934. o
      2729    1   6   6   4    8240.    7620.     934. o
      2730    2  -4  -6  -6    8669.    5196.    1735. o
      2730    1  -6   6  -4    8669.    5196.    1735. o
      2731    2   4  -6   8   15317.   16360.     981. o
      2731    1   8   6   4   15317.   16360.     981. o
      2732    2  -4  -6  -8   14662.   14921.    1838. o
      2732    1  -8   6  -4   14662.   14921.    1838. o
      2733    1  -9   7   4      12.    -506.     799. <
      2734    1   9   7  -4      13.     879.     773. <
      2735    1  -7   7   4     229.    2291.     718. o
      2736    1   7   7  -4     241.    3304.     717. o
      2737    1  -5   7   4     394.    3597.     663. o
      2738    1   5   7  -4     395.    3011.     771. o
      2739    1  -3   7   4    4630.   11111.     698. o
      2740    1   3   7  -4    4653.    8979.     626. o
      2741    1  -1   7   4   12090.   18998.     704. o
      2742    1   1   7  -4   12181.   21316.    1353. o
      2743    1   1   7   4   12181.   18838.    1256. o
      2744    1  -1   7  -4   12090.   16786.    1425. o
      2745    1   3   7   4    4653.    6794.    1223. o
      2746    1  -3   7  -4    4630.    9032.    1245. o
      2747    1   5   7   4     395.    4530.     822. o
      2748    1  -5   7  -4     394.    5062.    1462. o
      2749    1   7   7   4     241.     959.     799. <
      2750    1  -7   7  -4     229.    1306.    1732. <
      2751    1   9   7   4      13.    -480.     879. <
      2752    1  -9   7  -4      12.    1652.    1518. <
      2753    2   4  -8  -8   45244.   51637.    1070. o
      2753    1  -8   8   4   45244.   51637.    1070. o
      2754    2  -4  -8   8   44862.   49585.     922. o
      2754    1   8   8  -4   44862.   49585.     922. o
      2755    2   4  -8  -6   22595.   28803.     771. o
      2755    1  -6   8   4   22595.   28803.     771. o
      2756    2  -4  -8   6   24242.   28163.     874. o
      2756    1   6   8  -4   24242.   28163.     874. o
      2757    2   4  -8  -4  200153.  229222.    4437. o
      2757    1  -4   8   4  200153.  229222.    4437. o
      2758    2  -4  -8   4  199452.  221655.    4398. o
      2758    1   4   8  -4  199452.  221655.    4398. o
      2759    2   4  -8  -2   26223.   24380.     607. o
      2759    1  -2   8   4   26223.   24380.     607. o
      2760    2  -4  -8   2   23492.   22088.    1047. o
      2760    1   2   8  -4   23492.   22088.    1047. o
      2761    2   4  -8   0  391275.  388823.    2223. o
      2761    1   0   8   4  391275.  388823.    2223. o
      2762    2  -4  -8   0  405000.  412163.    3315. o
      2762    1   0   8  -4  405000.  412163.    3315. o
      2763    2   4  -8   2   28599.   21609.    1600. o
      2763    1   2   8   4   28599.   21609.    1600. o
      2764    2  -4  -8  -2   21116.   20756.    1121. o
      2764    1  -2   8  -4   21116.   20756.    1121. o
      2765    2   4  -8   4  197713.  207640.    1580. o
      2765    1   4   8   4  197713.  207640.    1580. o
      2766    2  -4  -8  -4  201892.  205482.    2370. o
      2766    1  -4   8  -4  201892.  205482.    2370. o
      2767    2   4  -8   6   24103.   26351.    1024. o
      2767    1   6   8   4   24103.   26351.    1024. o
      2768    2  -4  -8  -6   22734.   27417.    1713. o
      2768    1  -6   8  -4   22734.   27417.    1713. o
      2769    2   4  -8   8   45418.   47214.    1099. o
      2769    1   8   8   4   45418.   47214.    1099. o
      2770    2  -4  -8  -8   44688.   51770.    2087. o
      2770    1  -8   8  -4   44688.   51770.    2087. o
      2771    1  -9   9   4     953.    -746.     693. <
      2772    1   9   9  -4     996.    1759.     879. <
      2773    1  -7   9   4    2857.    4157.     878. o
      2774    1   7   9  -4    2759.    3890.     611. o
      2775    1  -5   9   4    1905.    1412.     773. <
      2776    1   5   9  -4    1906.     906.     667. <
      2777    1  -3   9   4    1622.    7247.     654. o
      2778    1   3   9  -4    1655.   10551.    1103. o
      2779    1  -1   9   4    7834.    7754.     533. o
      2780    1   1   9  -4    7848.    8633.    1251. o
      2781    1   1   9   4    7848.    5675.    1069. o
      2782    1  -1   9  -4    7834.    5435.    1681. o
      2783    1   3   9   4    1655.    9166.    1134. o
      2784    1  -3   9  -4    1622.    9459.    1241. o
      2785    1   5   9   4    1906.     879.     800. <
      2786    1  -5   9  -4    1905.     799.    1492. <
      2787    1   7   9   4    2759.    3197.     799. o
      2788    1  -7   9  -4    2857.    4423.    1224. o
      2789    1   9   9   4     996.     666.     666. <
      2790    1  -9   9  -4     953.   -1119.    1918. <
      2791    2   4 -10  -8   16613.   18944.     893. o
      2791    1  -8  10   4   16613.   18944.     893. o
      2792    2  -4 -10   8   16432.   21475.     821. o
      2792    1   8  10  -4   16432.   21475.     821. o
      2793    2   4 -10  -6     957.    2185.     745. o
      2793    1  -6  10   4     957.    2185.     745. o
      2794    2  -4 -10   6    1082.     933.     586. <
      2794    1   6  10  -4    1082.     933.     586. <
      2795    2   4 -10  -4   59706.   79827.     490. o
      2795    1  -4  10   4   59706.   79827.     490. o
      2796    2  -4 -10   4   59673.   74764.     795. o
      2796    1   4  10  -4   59673.   74764.     795. o
      2797    2   4 -10  -2    1229.    2691.     611. o
      2797    1  -2  10   4    1229.    2691.     611. o
      2798    2  -4 -10   2    1395.    3144.    1145. o
      2798    1   2  10  -4    1395.    3144.    1145. o
      2799    2   4 -10   0   64882.   62961.    1070. o
      2799    1   0  10   4   64882.   62961.    1070. o
      2800    2  -4 -10   0   64298.   61282.    2023. o
      2800    1   0  10  -4   64298.   61282.    2023. o
      2801    2   4 -10   2    1384.    2451.    1465. <
      2801    1   2  10   4    1384.    2451.    1465. <
      2802    2  -4 -10  -2    1240.    3197.    1118. o
      2802    1  -2  10  -4    1240.    3197.    1118. o
      2803    2   4 -10   4   59592.   68103.    1361. o
      2803    1   4  10   4   59592.   68103.    1361. o
      2804    2  -4 -10  -4   59787.   69089.    1719. o
      2804    1  -4  10  -4   59787.   69089.    1719. o
      2805    2   4 -10   6    1347.     746.     933. <
      2805    1   6  10   4    1347.     746.     933. <
      2806    2  -4 -10  -6     692.    -160.    1599. <
      2806    1  -6  10  -4     692.    -160.    1599. <
      2807    2   4 -10   8   16218.   16999.    1036. o
      2807    1   8  10   4   16218.   16999.    1036. o
      2808    2  -4 -10  -8   16827.   19024.    1726. o
      2808    1  -8  10  -4   16827.   19024.    1726. o
      2809    1  -9  11   4     142.    -133.     826. <
      2810    1   9  11  -4     125.    1119.     906. <
      2811    1  -7  11   4     276.     133.     719. <
      2812    1   7  11  -4     339.    1652.     825. <
      2813    1  -5  11   4     427.     586.     559. <
      2814    1   5  11  -4     340.    1492.     666. o
      2815    1  -3  11   4    3303.    3171.     480. o
      2816    1   3  11  -4    3445.    5249.    1090. o
      2817    1  -1  11   4    6656.    8713.     659. o
      2818    1   1  11  -4    6758.   11777.    1268. o
      2819    1   1  11   4    6758.    5649.    1014. o
      2820    1  -1  11  -4    6656.    9805.    1728. o
      2821    1   3  11   4    3445.    2505.    1066. o
      2822    1  -3  11  -4    3303.    2265.    1066. o
      2823    1   5  11   4     340.     107.     826. <
      2824    1  -5  11  -4     427.      53.    1252. <
      2825    1   7  11   4     339.      27.     773. <
      2826    1  -7  11  -4     276.    1918.    1625. <
      2827    1   9  11   4     125.     533.     693. <
      2828    1  -9  11  -4     142.    1119.    1678. <
      2829    2   4 -12  -8    9085.   10871.     713. o
      2829    1  -8  12   4    9085.   10871.     713. o
      2830    2  -4 -12   8    8713.   10551.     927. o
      2830    1   8  12  -4    8713.   10551.     927. o
      2831    2   4 -12  -6    1171.    1652.     586. o
      2831    1  -6  12   4    1171.    1652.     586. o
      2832    2  -4 -12   6    1372.    1812.     746. o
      2832    1   6  12  -4    1372.    1812.     746. o
      2833    2   4 -12  -4   27352.   37382.     738. o
      2833    1  -4  12   4   27352.   37382.     738. o
      2834    2  -4 -12   4   27281.   33092.     794. o
      2834    1   4  12  -4   27281.   33092.     794. o
      2835    2   4 -12  -2    1489.    1119.     506. o
      2835    1  -2  12   4    1489.    1119.     506. o
      2836    2  -4 -12   2    1717.    1412.    1146. <
      2836    1   2  12  -4    1717.    1412.    1146. <
      2837    2   4 -12   0   30883.   29895.     915. o
      2837    1   0  12   4   30883.   29895.     915. o
      2838    2  -4 -12   0   30827.   28510.    1848. o
      2838    1   0  12  -4   30827.   28510.    1848. o
      2839    2   4 -12   2    1358.     773.     853. <
      2839    1   2  12   4    1358.     773.     853. <
      2840    2  -4 -12  -2    1848.    1172.    1439. <
      2840    1  -2  12  -4    1848.    1172.    1439. <
      2841    2   4 -12   4   27105.   26032.    1073. o
      2841    1   4  12   4   27105.   26032.    1073. o
      2842    2  -4 -12  -4   27528.   28137.    1623. o
      2842    1  -4  12  -4   27528.   28137.    1623. o
      2843    2   4 -12   6    1579.    1252.     933. <
      2843    1   6  12   4    1579.    1252.     933. <
      2844    2  -4 -12  -6     964.    -533.    1359. <
      2844    1  -6  12  -4     964.    -533.    1359. <
      2845    2   4 -12   8    8499.    9565.    1010. o
      2845    1   8  12   4    8499.    9565.    1010. o
      2846    2  -4 -12  -8    9300.    9699.    1491. o
      2846    1  -8  12  -4    9300.    9699.    1491. o
      2847    1  -7  13   4    1007.    1119.     826. <
      2848    1   7  13  -4    1028.    1012.     693. <
      2849    1  -5  13   4    3325.    3624.     666. o
      2850    1   5  13  -4    3278.    2638.     560. o
      2851    1  -3  13   4    2122.    5276.     499. o
      2852    1   3  13  -4    1940.    9059.    1135. o
      2853    1  -1  13   4    9182.   15400.     604. o
      2854    1   1  13   4   10041.   23341.    1281. o
      2855    1  -1  13  -4    9182.   19744.    1516. o
      2856    1   3  13   4    1940.    3997.    1011. o
      2857    1  -3  13  -4    2122.    4476.    1010. o
      2858    1   5  13   4    3278.    3943.    1012. o
      2859    1  -5  13  -4    3325.    2798.    1492. <
      2860    1   7  13   4    1028.     906.     773. <
      2861    1  -7  13  -4    1007.     719.    1066. <
      2862    2   4 -14  -8   41357.   43697.     986. o
      2862    1  -8  14   4   41357.   43697.     986. o
      2863    2  -4 -14   8   41189.   44523.    1029. o
      2863    1   8  14  -4   41189.   44523.    1029. o
      2864    2   4 -14  -6   39114.   44923.     916. o
      2864    1  -6  14   4   39114.   44923.     916. o
      2865    2  -4 -14   6   40091.   42125.     881. o
      2865    1   6  14  -4   40091.   42125.     881. o
      2866    2   4 -14  -4  251345.  302122.    5638. o
      2866    1  -4  14   4  251345.  302122.    5638. o
      2867    2  -4 -14   4  250293.  298205.    5885. o
      2867    1   4  14  -4  250293.  298205.    5885. o
      2868    2   4 -14  -2  118369.  113319.    1179. o
      2868    1  -2  14   4  118369.  113319.    1179. o
      2869    2  -4 -14   2  113860.  101915.    1821. o
      2869    1   2  14  -4  113860.  101915.    1821. o
      2870    2   4 -14   0  536705.  544133.    2383. o
      2870    1   0  14   4  536705.  544133.    2383. o
      2871    2  -4 -14   0  539905.  506778.    4949. o
      2871    1   0  14  -4  539905.  506778.    4949. o
      2872    2   4 -14   2  119804.  105832.    1979. o
      2872    1   2  14   4  119804.  105832.    1979. o
      2873    2  -4 -14  -2  112425.   98265.    2756. o
      2873    1  -2  14  -4  112425.   98265.    2756. o
      2874    2   4 -14   4  247682.  269429.    1685. o
      2874    1   4  14   4  247682.  269429.    1685. o
      2875    2  -4 -14  -4  253957.  271481.    2214. o
      2875    1  -4  14  -4  253957.  271481.    2214. o
      2876    2   4 -14   6   39592.   39780.    1144. o
      2876    1   6  14   4   39592.   39780.    1144. o
      2877    2  -4 -14  -6   39613.   45136.    1831. o
      2877    1  -6  14  -4   39613.   45136.    1831. o
      2878    2   4 -14   8   41470.   37142.    1132. o
      2878    1   8  14   4   41470.   37142.    1132. o
      2879    2  -4 -14  -8   41075.   44336.    1953. o
      2879    1  -8  14  -4   41075.   44336.    1953. o
      2880    1  -7  15   4     554.    1892.     825. o
      2881    1   7  15  -4     523.    1918.     692. o
      2882    1  -5  15   4     756.    1252.     799. <
      2883    1   5  15  -4     730.    1226.     826. <
      2884    1  -3  15   4     549.    1945.     692. o
      2885    1   3  15  -4     794.    1705.     772. o
      2886    1  -1  15   4    5590.   12656.     884. o
      2887    1   1  15   4    5307.    7674.    1276. o
      2888    1  -1  15  -4    5590.    6768.    1384. o
      2889    1   3  15   4     794.    1625.     986. <
      2890    1  -3  15  -4     549.    6048.    1274. o
      2891    1   5  15   4     730.    1465.     826. <
      2892    1  -5  15  -4     756.    1252.    1172. <
      2893    1   7  15   4     523.    1199.     746. <
      2894    1  -7  15  -4     554.    1359.    1279. <
      2895    2   4 -16  -8   13823.   13748.     853. o
      2895    1  -8  16   4   13823.   13748.     853. o
      2896    2  -4 -16   8   13427.   13802.     904. o
      2896    1   8  16  -4   13427.   13802.     904. o
      2897    2   4 -16  -6   37433.   45189.     951. o
      2897    1  -6  16   4   37433.   45189.     951. o
      2898    2  -4 -16   6   38055.   37009.     812. o
      2898    1   6  16  -4   38055.   37009.     812. o
      2899    2   4 -16  -4  107703.  121099.     295. o
      2899    1  -4  16   4  107703.  121099.     295. o
      2900    2  -4 -16   4  107285.  115797.    1429. o
      2900    1   4  16  -4  107285.  115797.    1429. o
      2901    2   4 -16  -2  137567.  136606.    1098. o
      2901    1  -2  16   4  137567.  136606.    1098. o
      2902    2  -4 -16   2  135209.  147744.    1833. o
      2902    1   2  16  -4  135209.  147744.    1833. o
      2903    2   4 -16   0  268258.  249446.    2624. o
      2903    1   0  16   4  268258.  249446.    2624. o
      2904    2  -4 -16   0  269311.  233112.    3121. o
      2904    1   0  16  -4  269311.  233112.    3121. o
      2905    2   4 -16   2  139675.  127387.    2179. o
      2905    1   2  16   4  139675.  127387.    2179. o
      2906    2  -4 -16  -2  133100.  133622.    2844. o
      2906    1  -2  16  -4  133100.  133622.    2844. o
      2907    2   4 -16   4  106247.  106178.    1786. o
      2907    1   4  16   4  106247.  106178.    1786. o
      2908    2  -4 -16  -4  108742.  117156.    2008. o
      2908    1  -4  16  -4  108742.  117156.    2008. o
      2909    2   4 -16   6   38404.   36103.    1035. o
      2909    1   6  16   4   38404.   36103.    1035. o
      2910    2  -4 -16  -6   37084.   41832.    1621. o
      2910    1  -6  16  -4   37084.   41832.    1621. o
      2911    2   4 -16   8   13560.   11191.     888. o
      2911    1   8  16   4   13560.   11191.     888. o
      2912    2  -4 -16  -8   13690.   12736.    1494. o
      2912    1  -8  16  -4   13690.   12736.    1494. o
      2913    1  -7  17   4    1321.    2345.     852. o
      2914    1   7  17  -4    1344.     560.     613. <
      2915    1  -5  17   4     649.    1146.     719. <
      2916    1   5  17  -4     667.    1172.     879. <
      2917    1  -3  17   4    4100.    3677.     640. o
      2918    1   3  17  -4    3935.    2798.    1226. o
      2919    1  -1  17   4    5293.    6634.     930. o
      2920    1   1  17   4    5109.    4396.    1173. o
      2921    1  -1  17  -4    5294.    4050.    1466. o
      2922    1   3  17   4    3935.    3251.    1013. o
      2923    1  -3  17  -4    4100.    2371.    1892. <
      2924    1   5  17   4     667.    1625.    1065. <
      2925    1  -5  17  -4     649.    1279.    1279. <
      2926    1   7  17   4    1344.    1519.     959. <
      2927    1  -7  17  -4    1321.    2238.    1705. <
      2928    2   4 -18  -8   13663.   13775.     852. o
      2928    1  -8  18   4   13663.   13775.     852. o
      2929    2  -4 -18   8   13355.   14015.     850. o
      2929    1   8  18  -4   13355.   14015.     850. o
      2930    2   4 -18  -6    1717.    1119.     613. <
      2930    1  -6  18   4    1717.    1119.     613. <
      2931    2  -4 -18   6    2077.    1039.     747. <
      2931    1   6  18  -4    2077.    1039.     747. <
      2932    2   4 -18  -4   37076.   43590.     673. o
      2932    1  -4  18   4   37076.   43590.     673. o
      2933    2  -4 -18   4   37139.   42365.    1481. o
      2933    1   4  18  -4   37139.   42365.    1481. o
      2934    2   4 -18  -2    1973.    1252.     640. <
      2934    1  -2  18   4    1973.    1252.     640. <
      2935    2  -4 -18   2    1991.    1599.    1119. <
      2935    1   2  18  -4    1991.    1599.    1119. <
      2936    2   4 -18   0   52969.   53369.    1301. o
      2936    1   0  18   4   52969.   53369.    1301. o
      2937    2  -4 -18   0   52314.   49186.    1468. o
      2937    1   0  18  -4   52314.   49186.    1468. o
      2938    2   4 -18   2    1741.    2158.    1332. <
      2938    1   2  18   4    1741.    2158.    1332. <
      2939    2  -4 -18  -2    2223.    2158.    1465. <
      2939    1  -2  18  -4    2223.    2158.    1465. <
      2940    2   4 -18   4   37295.   34931.    1507. o
      2940    1   4  18   4   37295.   34931.    1507. o
      2941    2  -4 -18  -4   36920.   33812.    1406. o
      2941    1  -4  18  -4   36920.   33812.    1406. o
      2942    2   4 -18   6    2379.    1332.     960. <
      2942    1   6  18   4    2379.    1332.     960. <
      2943    2  -4 -18  -6    1416.    1039.    1252. <
      2943    1  -6  18  -4    1416.    1039.    1252. <
      2944    2   4 -18   8   13162.   13002.     907. o
      2944    1   8  18   4   13162.   13002.     907. o
      2945    2  -4 -18  -8   13856.   15507.    1648. o
      2945    1  -8  18  -4   13856.   15507.    1648. o
      2946    1  -7  19   4     535.     533.     879. <
      2947    1   7  19  -4     488.    1306.     879. <
      2948    1  -5  19   4    1548.    2132.     586. o
      2949    1   5  19  -4    1652.    3464.     931. o
      2950    1  -3  19   4    1897.    2425.     612. o
      2951    1   3  19  -4    1908.    4530.    1277. o
      2952    1  -1  19   4   10889.   11963.     849. o
      2953    1   1  19  -4   10944.    9539.    1761. o
      2954    1   1  19   4   10944.   14441.    1671. o
      2955    1  -1  19  -4   10889.   11137.    2051. o
      2956    1   3  19   4    1908.    2531.    1305. <
      2957    1  -3  19  -4    1897.     373.    1306. <
      2958    1   5  19   4    1652.    2132.     826. o
      2959    1  -5  19  -4    1548.    1785.    1359. <
      2960    1   7  19   4     488.    1012.     799. <
      2961    1  -7  19  -4     535.    -799.    1492. <
      2962    2   4 -20  -8     177.    2025.     692. o
      2962    1  -8  20   4     177.    2025.     692. o
      2963    2  -4 -20   8     119.     293.     826. <
      2963    1   8  20  -4     119.     293.     826. <
      2964    2   4 -20  -6    1017.    1759.     612. o
      2964    1  -6  20   4    1017.    1759.     612. o
      2965    2  -4 -20   6     991.    1732.    1279. <
      2965    1   6  20  -4     991.    1732.    1279. <
      2966    2   4 -20  -4    5304.    8526.     575. o
      2966    1  -4  20   4    5304.    8526.     575. o
      2967    2  -4 -20   4    5230.    6208.     931. o
      2967    1   4  20  -4    5230.    6208.     931. o
      2968    2   4 -20  -2    1767.    2132.     746. o
      2968    1  -2  20   4    1767.    2132.     746. o
      2969    2  -4 -20   2    1408.    2318.    1145. o
      2969    1   2  20  -4    1408.    2318.    1145. o
      2970    2   4 -20   0   19000.   13456.    1113. o
      2970    1   0  20   4   19000.   13456.    1113. o
      2971    2  -4 -20   0   20393.   11297.    1072. o
      2971    1   0  20  -4   20393.   11297.    1072. o
      2972    2   4 -20   2    1843.    1119.    1199. <
      2972    1   2  20   4    1843.    1119.    1199. <
      2973    2  -4 -20  -2    1332.    1306.    1252. <
      2973    1  -2  20  -4    1332.    1306.    1252. <
      2974    2   4 -20   4    5045.    3410.    1813. <
      2974    1   4  20   4    5045.    3410.    1813. <
      2975    2  -4 -20  -4    5489.    2958.    1228. o
      2975    1  -4  20  -4    5489.    2958.    1228. o
      2976    2   4 -20   6     955.     959.     879. <
      2976    1   6  20   4     955.     959.     879. <
      2977    2  -4 -20  -6    1052.    2611.    1332. <
      2977    1  -6  20  -4    1052.    2611.    1332. <
      2978    2   4 -20   8     134.    1759.    1012. <
      2978    1   8  20   4     134.    1759.    1012. <
      2979    2  -4 -20  -8     162.    1039.    1572. <
      2979    1  -8  20  -4     162.    1039.    1572. <
      2980    1  -7  21   4     668.     906.     879. <
      2981    1   7  21  -4     704.     879.     959. <
      2982    1  -5  21   4     339.    1625.     559. o
      2983    1   5  21  -4     291.     693.    1412. <
      2984    1  -3  21   4    7523.    2078.     675. o
      2985    1   3  21  -4    8176.    2425.     887. o
      2986    1  -1  21   4    3331.    9032.     840. o
      2987    1   1  21  -4    2840.    8500.    1110. o
      2988    1   1  21   4    2840.    5862.    1329. o
      2989    1  -1  21  -4    3331.    6661.    2129. o
      2990    1   3  21   4    8176.    2185.    1364. <
      2991    1  -3  21  -4    7523.    1199.    1655. <
      2992    1   5  21   4     291.    2291.     958. o
      2993    1  -5  21  -4     339.    2371.    1225. <
      2994    1   7  21   4     704.     187.     959. <
      2995    1  -7  21  -4     668.     719.    1252. <
      2996    2   4 -22  -8   23808.   21822.     840. o
      2996    1  -8  22   4   23808.   21822.     840. o
      2997    2  -4 -22   8   23285.   24646.    1540. o
      2997    1   8  22  -4   23285.   24646.    1540. o
      2998    2   4 -22  -6   33069.   36396.     703. o
      2998    1  -6  22   4   33069.   36396.     703. o
      2999    2  -4 -22   6   33797.   40580.    1527. o
      2999    1   6  22  -4   33797.   40580.    1527. o
      3000    2   4 -22  -4  102421.  110361.     604. o
      3000    1  -4  22   4  102421.  110361.     604. o
      3001    2  -4 -22   4  101740.  122112.    1655. o
      3001    1   4  22  -4  101740.  122112.    1655. o
      3002    2   4 -22  -2   70584.   72313.     952. o
      3002    1  -2  22   4   70584.   72313.     952. o
      3003    2  -4 -22   2   69380.   53875.    1648. o
      3003    1   2  22  -4   69380.   53875.    1648. o
      3004    2   4 -22   0  197285.  170844.    2432. o
      3004    1   0  22   4  197285.  170844.    2432. o
      3005    2  -4 -22   0  204045.  178198.    2668. o
      3005    1   0  22  -4  204045.  178198.    2668. o
      3006    2   4 -22   2   72542.   76416.    2122. o
      3006    1   2  22   4   72542.   76416.    2122. o
      3007    2  -4 -22  -2   67422.   66664.    2218. o
      3007    1  -2  22  -4   67422.   66664.    2218. o
      3008    2   4 -22   4  100050.  106898.    2262. o
      3008    1   4  22   4  100050.  106898.    2262. o
      3009    2  -4 -22  -4  104112.  106098.    2240. o
      3009    1  -4  22  -4  104112.  106098.    2240. o
      3010    2   4 -22   6   34485.   28616.    1135. o
      3010    1   6  22   4   34485.   28616.    1135. o
      3011    2  -4 -22  -6   32381.   36743.    1735. o
      3011    1  -6  22  -4   32381.   36743.    1735. o
      3012    2   4 -22   8   23645.   18811.    1038. o
      3012    1   8  22   4   23645.   18811.    1038. o
      3013    2  -4 -22  -8   23448.   25446.    1724. o
      3013    1  -8  22  -4   23448.   25446.    1724. o
      3014    1  -7  23   4    1424.    1652.     613. o
      3015    1   7  23  -4    1403.    1599.     959. <
      3016    1  -5  23   4     144.     666.     479. <
      3017    1   5  23  -4     130.     693.    1332. <
      3018    1  -3  23   4    4347.    8153.     683. o
      3019    1   3  23  -4    4544.    8926.    1352. o
      3020    1  -1  23   4    3284.    7967.     843. o
      3021    1   1  23  -4    3370.    8100.     951. o
      3022    1   1  23   4    3370.    5409.    1437. o
      3023    1  -1  23  -4    3284.    5595.    2024. o
      3024    1   3  23   4    4544.    9672.    1779. o
      3025    1  -3  23  -4    4347.    9672.    1377. o
      3026    1   5  23   4     130.    1226.    1439. <
      3027    1  -5  23  -4     144.    -293.    1226. <
      3028    1   7  23   4    1403.    2078.     879. o
      3029    1  -7  23  -4    1424.    2478.    1305. <
      3030    2   4 -24  -8     795.    2505.     852. o
      3030    1  -8  24   4     795.    2505.     852. o
      3031    2  -4 -24   8     587.    1945.     985. <
      3031    1   8  24  -4     587.    1945.     985. <
      3032    2   4 -24  -6    2802.    3677.     612. o
      3032    1  -6  24   4    2802.    3677.     612. o
      3033    2  -4 -24   6    2885.    2451.    1332. <
      3033    1   6  24  -4    2885.    2451.    1332. <
      3034    2   4 -24  -4    4909.    6634.     608. o
      3034    1  -4  24   4    4909.    6634.     608. o
      3035    2  -4 -24   4    4628.    8073.    1408. o
      3035    1   4  24  -4    4628.    8073.    1408. o
      3036    2   4 -24  -2    2692.    2265.     773. o
      3036    1  -2  24   4    2692.    2265.     773. o
      3037    2   4 -24   0    6501.    3197.     857. o
      3037    1   0  24   4    6501.    3197.     857. o
      3038    2  -4 -24   0    8186.    3091.     966. o
      3038    1   0  24  -4    8186.    3091.     966. o
      3039    2   4 -24   2    2675.    2291.    1599. <
      3039    1   2  24   4    2675.    2291.    1599. <
      3040    2  -4 -24  -2    2110.    1892.    1199. <
      3040    1  -2  24  -4    2110.    1892.    1199. <
      3041    2   4 -24   4    3930.    2052.    1174. <
      3041    1   4  24   4    3930.    2052.    1174. <
      3042    2  -4 -24  -4    5607.    4236.    1200. o
      3042    1  -4  24  -4    5607.    4236.    1200. o
      3043    2   4 -24   6    2860.    2718.    1172. o
      3043    1   6  24   4    2860.    2718.    1172. o
      3044    2  -4 -24  -6    2827.    2611.    1439. <
      3044    1  -6  24  -4    2827.    2611.    1439. <
      3045    2   4 -24   8     572.    2398.    1092. o
      3045    1   8  24   4     572.    2398.    1092. o
      3046    2  -4 -24  -8     810.    -266.    1359. <
      3046    1  -8  24  -4     810.    -266.    1359. <
      3047    1  -7  25   4     632.    1838.     692. o
      3048    1   7  25  -4     694.     560.     933. <
      3049    1  -5  25   4    1196.     293.     613. <
      3050    1   5  25  -4    1047.     506.    1412. <
      3051    1  -3  25   4    1160.     666.     720. <
      3052    1   3  25  -4    1197.    1012.     959. <
      3053    1  -1  25   4    4877.    3251.     961. o
      3054    1   1  25  -4    4634.    1652.    1068. <
      3055    1   1  25   4    4634.     -53.    1919. <
      3056    1  -1  25  -4    4877.    3357.    1866. <
      3057    1   3  25   4    1197.    1652.    1146. <
      3058    1  -3  25  -4    1160.   -2638.    1651. <
      3059    1   5  25   4    1047.     773.    1306. <
      3060    1  -5  25  -4    1196.    2878.    1651. <
      3061    1   7  25   4     694.     400.    1172. <
      3062    1  -7  25  -4     632.     400.    1359. <
      3063    2   4 -26  -6    9847.   10631.     636. o
      3063    1  -6  26   4    9847.   10631.     636. o
      3064    2  -4 -26   6    9703.   12123.    1487. o
      3064    1   6  26  -4    9703.   12123.    1487. o
      3065    2   4 -26  -4   28476.   32879.     752. o
      3065    1  -4  26   4   28476.   32879.     752. o
      3066    2  -4 -26   4   28462.   31281.    1288. o
      3066    1   4  26  -4   28462.   31281.    1288. o
      3067    2   4 -26  -2   21445.   25952.     677. o
      3067    1  -2  26   4   21445.   25952.     677. o
      3068    2   4 -26   0   29502.   23900.    1205. o
      3068    1   0  26   4   29502.   23900.    1205. o
      3069    2  -4 -26   0   29052.   22195.    1262. o
      3069    1   0  26  -4   29052.   22195.    1262. o
      3070    2   4 -26   2   21211.   26751.    1791. o
      3070    1   2  26   4   21211.   26751.    1791. o
      3071    2  -4 -26  -2   22278.   20383.    1261. o
      3071    1  -2  26  -4   22278.   20383.    1261. o
      3072    2   4 -26   4   28429.   27630.    1390. o
      3072    1   4  26   4   28429.   27630.    1390. o
      3073    2  -4 -26  -4   28509.   23767.    1330. o
      3073    1  -4  26  -4   28509.   23767.    1330. o
      3074    2   4 -26   6    9646.   10098.    1944. o
      3074    1   6  26   4    9646.   10098.    1944. o
      3075    2  -4 -26  -6    9904.   11697.    1382. o
      3075    1  -6  26  -4    9904.   11697.    1382. o
      3076    1  -7  27   4     517.     986.     613. <
      3077    1   7  27  -4     498.     266.    1412. <
      3078    1  -5  27   4     847.    1732.     586. o
      3079    1   5  27  -4     841.    1332.    1492. <
      3080    1  -3  27   4    5665.    2958.     538. o
      3081    1   3  27  -4    5711.    3917.    1334. o
      3082    1  -1  27   4    6879.    8180.    1010. o
      3083    1   1  27  -4    6833.    5515.    1015. o
      3084    1   1  27   4    6833.    6794.    1306. o
      3085    1  -1  27  -4    6879.    4636.    1281. o
      3086    1   3  27   4    5711.    2211.    1095. o
      3087    1  -3  27  -4    5665.    2398.    1574. <
      3088    1   5  27   4     841.    -560.    1146. <
      3089    1  -5  27  -4     847.    1652.    1572. <
      3090    1   7  27   4     498.     160.    1652. <
      3091    1  -7  27  -4     517.     160.    1332. <
      3092    2   4 -28  -6    9324.   11857.     736. o
      3092    1  -6  28   4    9324.   11857.     736. o
      3093    2  -4 -28   6    9607.   11404.    1061. o
      3093    1   6  28  -4    9607.   11404.    1061. o
      3094    2   4 -28  -4   27515.   30694.     795. o
      3094    1  -4  28   4   27515.   30694.     795. o
      3095    2  -4 -28   4   27231.   28936.    1296. o
      3095    1   4  28  -4   27231.   28936.    1296. o
      3096    2   4 -28  -2   25889.   31680.     768. o
      3096    1  -2  28   4   25889.   31680.     768. o
      3097    2   4 -28   0   58815.   56620.    1541. o
      3097    1   0  28   4   58815.   56620.    1541. o
      3098    2  -4 -28   0   59621.   50278.    1579. o
      3098    1   0  28  -4   59621.   50278.    1579. o
      3099    2   4 -28   2   26087.   32799.    1673. o
      3099    1   2  28   4   26087.   32799.    1673. o
      3100    2  -4 -28  -2   24510.   26218.    1350. o
      3100    1  -2  28  -4   24510.   26218.    1350. o
      3101    2   4 -28   4   26527.   24353.    1634. o
      3101    1   4  28   4   26527.   24353.    1634. o
      3102    2  -4 -28  -4   28219.   24033.    1406. o
      3102    1  -4  28  -4   28219.   24033.    1406. o
      3103    2   4 -28   6    9551.   10391.    1971. o
      3103    1   6  28   4    9551.   10391.    1971. o
      3104    2  -4 -28  -6    9379.   13855.    1267. o
      3104    1  -6  28  -4    9379.   13855.    1267. o
      3105    1  -7  29   4     989.     -53.     533. <
      3106    1   7  29  -4     985.     213.    1519. <
      3107    1  -5  29   4    1002.     693.     613. <
      3108    1   5  29  -4     915.    -799.    1092. <
      3109    1  -3  29   4     674.    1012.     666. <
      3110    1   3  29  -4     775.    1012.    1385. <
      3111    1  -1  29   4    4994.    3410.     855. o
      3112    1   1  29  -4    4631.    2291.     988. o
      3113    1   1  29   4    4631.    2425.    1174. o
      3114    1  -1  29  -4    4994.    2398.    1121. o
      3115    1   3  29   4     775.    -266.    1492. <
      3116    1  -3  29  -4     674.    -293.    1119. <
      3117    1   5  29   4     916.    2291.    1545. <
      3118    1  -5  29  -4    1002.    2558.    1571. <
      3119    1   7  29   4     985.    3544.    1837. <
      3120    1  -7  29  -4     989.   -1705.    1812. <
      3121    2   4 -30  -6   33870.   33066.     808. o
      3121    1  -6  30   4   33870.   33066.     808. o
      3122    2  -4 -30   6   34807.   32080.    1298. o
      3122    1   6  30  -4   34807.   32080.    1298. o
      3123    2   4 -30  -4   70925.   81212.     876. o
      3123    1  -4  30   4   70925.   81212.     876. o
      3124    2  -4 -30   4   70633.   84596.    2016. o
      3124    1   4  30  -4   70633.   84596.    2016. o
      3125    2   4 -30  -2  107075.  119980.     719. o
      3125    1  -2  30   4  107075.  119980.     719. o
      3126    2   4 -30   0  147771.  138498.    2069. o
      3126    1   0  30   4  147771.  138498.    2069. o
      3127    2  -4 -30   0  149260.  140923.    2202. o
      3127    1   0  30  -4  149260.  140923.    2202. o
      3128    2   4 -30   2  108580.  124669.    1936. o
      3128    1   2  30   4  108580.  124669.    1936. o
      3129    2  -4 -30  -2  103902.  107244.    2141. o
      3129    1  -2  30  -4  103902.  107244.    2141. o
      3130    2   4 -30   4   69909.   72233.    1544. o
      3130    1   4  30   4   69909.   72233.    1544. o
      3131    2  -4 -30  -4   71649.   73086.    1931. o
      3131    1  -4  30  -4   71649.   73086.    1931. o
      3132    2   4 -30   6   34862.   31707.    2012. o
      3132    1   6  30   4   34862.   31707.    2012. o
      3133    2  -4 -30  -6   33815.   35570.    1508. o
      3133    1  -6  30  -4   33815.   35570.    1508. o
      3134    1  -7  31   4     930.    -506.     799. <
      3135    1   7  31  -4     931.      53.    1092. <
      3136    1  -5  31   4     705.     400.     666. <
      3137    1   5  31  -4     681.     373.    1066. <
      3138    1  -3  31   4    1986.     320.     720. <
      3139    1   3  31  -4    2129.    1146.    1466. <
      3140    1  -1  31   4    1021.    2238.     985. o
      3141    1   1  31  -4     847.    1972.     985. <
      3142    1   1  31   4     847.    2558.    1571. <
      3143    1  -1  31  -4    1021.    1652.    1519. <
      3144    1   3  31   4    2129.    1572.    1066. <
      3145    1  -3  31  -4    1986.     213.    1093. <
      3146    1   5  31   4     681.    3597.    1651. o
      3147    1  -5  31  -4     705.    -533.    1572. <
      3148    1   7  31   4     931.    4023.    1917. o
      3149    1  -7  31  -4     930.     133.    1785. <
      3150    2   4 -32  -6     515.     959.     666. <
      3150    1  -6  32   4     515.     959.     666. <
      3151    2  -4 -32   6     709.     346.    1465. <
      3151    1   6  32  -4     709.     346.    1465. <
      3152    2   4 -32  -4    2147.    4210.     663. o
      3152    1  -4  32   4    2147.    4210.     663. o
      3153    2  -4 -32   4    2218.    4583.    1570. o
      3153    1   4  32  -4    2218.    4583.    1570. o
      3154    2   4 -32  -2    2620.     933.     827. <
      3154    1  -2  32   4    2620.     933.     827. <
      3155    2   4 -32   0    7051.    9539.    1167. o
      3155    1   0  32   4    7051.    9539.    1167. o
      3156    2  -4 -32   0    6962.    6608.    1253. o
      3156    1   0  32  -4    6962.    6608.    1253. o
      3157    2   4 -32   2    2697.     986.    1519. <
      3157    1   2  32   4    2697.     986.    1519. <
      3158    2  -4 -32  -2    2282.    1252.    1119. <
      3158    1  -2  32  -4    2282.    1252.    1119. <
      3159    2   4 -32   4    2394.    -320.    1359. <
      3159    1   4  32   4    2394.    -320.    1359. <
      3160    2  -4 -32  -4    1971.    1252.    1439. <
      3160    1  -4  32  -4    1971.    1252.    1439. <
      3161    2   4 -32   6     731.    -746.    1625. <
      3161    1   6  32   4     731.    -746.    1625. <
      3162    2  -4 -32  -6     493.     426.    1119. <
      3162    1  -6  32  -4     493.     426.    1119. <
      3163    1  -7  33   4     332.    1172.     666. <
      3164    1   7  33  -4     345.    -613.    1519. <
      3165    1  -5  33   4    1037.    -560.     693. <
      3166    1   5  33  -4    1022.    1492.    1519. <
      3167    1  -3  33   4    1297.     853.     799. <
      3168    1   3  33  -4    1312.     400.    1039. <
      3169    1  -1  33   4    2683.    2798.    1012. o
      3170    1   1  33  -4    2565.    2531.    1039. o
      3171    1   1  33   4    2565.    2211.    1119. <
      3172    1  -1  33  -4    2683.    1146.    1093. <
      3173    1   3  33   4    1312.    -320.     986. <
      3174    1  -3  33  -4    1297.    2185.    1412. <
      3175    1   5  33   4    1022.    -187.    1066. <
      3176    1  -5  33  -4    1037.    1918.    1545. <
      3177    1   7  33   4     345.    -533.    1812. <
      3178    1  -7  33  -4     332.     560.    1705. <
      3179    2   4 -34  -6     897.    1279.     773. <
      3179    1  -6  34   4     897.    1279.     773. <
      3180    2  -4 -34   6     960.    2345.    1145. o
      3180    1   6  34  -4     960.    2345.    1145. o
      3181    2   4 -34  -4    2070.    3757.     824. o
      3181    1  -4  34   4    2070.    3757.     824. o
      3182    2  -4 -34   4    2134.    1572.    1173. <
      3182    1   4  34  -4    2134.    1572.    1173. <
      3183    2   4 -34  -2    2189.    3197.     825. o
      3183    1  -2  34   4    2189.    3197.     825. o
      3184    2   4 -34   0    4445.    2505.    1147. o
      3184    1   0  34   4    4445.    2505.    1147. o
      3185    2  -4 -34   0    4024.    2132.    1174. <
      3185    1   0  34  -4    4024.    2132.    1174. <
      3186    2   4 -34   2    1866.    2265.    1465. <
      3186    1   2  34   4    1866.    2265.    1465. <
      3187    2  -4 -34  -2    2347.    1146.    1466. <
      3187    1  -2  34  -4    2347.    1146.    1466. <
      3188    2   4 -34   4    2295.    1945.    1013. <
      3188    1   4  34   4    2295.    1945.    1013. <
      3189    2  -4 -34  -4    1909.    -213.    1466. <
      3189    1  -4  34  -4    1909.    -213.    1466. <
      3190    2   4 -34   6     968.     879.    1199. <
      3190    1   6  34   4     968.     879.    1199. <
      3191    2  -4 -34  -6     890.    1892.    1119. <
      3191    1  -6  34  -4     890.    1892.    1119. <
      3192    1  -5  35   4     893.     213.     746. <
      3193    1   5  35  -4     885.    1759.    1199. <
      3194    1  -3  35   4    1588.     959.     666. <
      3195    1   3  35  -4    1657.     853.    1599. <
      3196    1  -1  35   4    3582.    3997.    1065. o
      3197    1   1  35  -4    3481.    1892.    1040. <
      3198    1   1  35   4    3481.    1119.     987. <
      3199    1  -1  35  -4    3582.    1785.    1466. <
      3200    1   3  35   4    1657.     453.     959. <
      3201    1  -3  35  -4    1588.    2425.    1359. <
      3202    1   5  35   4     885.     293.    1039. <
      3203    1  -5  35  -4     893.    2531.    1492. <
      3204    2   4 -36  -6   11655.   12043.     718. o
      3204    1  -6  36   4   11655.   12043.     718. o
      3205    2  -4 -36   6   11762.   10391.    1681. o
      3205    1   6  36  -4   11762.   10391.    1681. o
      3206    2   4 -36  -4   23161.   19637.     901. o
      3206    1  -4  36   4   23161.   19637.     901. o
      3207    2  -4 -36   4   23029.   20170.    1847. o
      3207    1   4  36  -4   23029.   20170.    1847. o
      3208    2   4 -36  -2   30477.   44176.     889. o
      3208    1  -2  36   4   30477.   44176.     889. o
      3209    2  -4 -36   2   30545.   46521.    1964. o
      3209    1   2  36  -4   30545.   46521.    1964. o
      3210    2   4 -36   0   40627.   36476.    1572. o
      3210    1   0  36   4   40627.   36476.    1572. o
      3211    2  -4 -36   0   42614.   32373.    1454. o
      3211    1   0  36  -4   42614.   32373.    1454. o
      3212    2   4 -36   2   31626.   40366.    1598. o
      3212    1   2  36   4   31626.   40366.    1598. o
      3213    2  -4 -36  -2   29396.   37302.    1634. o
      3213    1  -2  36  -4   29396.   37302.    1634. o
      3214    2   4 -36   4   22703.   15081.    1568. o
      3214    1   4  36   4   22703.   15081.    1568. o
      3215    2  -4 -36  -4   23487.   14202.    1573. o
      3215    1  -4  36  -4   23487.   14202.    1573. o
      3216    2   4 -36   6   11861.   11350.    1254. o
      3216    1   6  36   4   11861.   11350.    1254. o
      3217    2  -4 -36  -6   11556.   12816.    1222. o
      3217    1  -6  36  -4   11556.   12816.    1222. o
      3218    1  -5  37   4     102.     533.     666. <
      3219    1   5  37  -4     100.     826.    1652. <
      3220    1  -3  37   4    4989.     959.     749. <
      3221    1   3  37  -4    5222.     853.    1547. <
      3222    1  -1  37   4    2996.    -373.    1040. <
      3223    1   1  37  -4    2868.     107.     987. <
      3224    1   1  37   4    2868.    3757.    1412. o
      3225    1  -1  37  -4    2996.      27.     960. <
      3226    1   3  37   4    5222.    2105.    1308. <
      3227    1  -3  37  -4    4989.    1172.    1414. <
      3228    1   5  37   4     100.     719.    1385. <
      3229    1  -5  37  -4     102.    2158.    1438. <
      3230    2   4 -38  -6    6656.    5542.     881. o
      3230    1  -6  38   4    6656.    5542.     881. o
      3231    2  -4 -38   6    6667.    6102.    1653. o
      3231    1   6  38  -4    6667.    6102.    1653. o
      3232    2   4 -38  -4    9556.   13349.     838. o
      3232    1  -4  38   4    9556.   13349.     838. o
      3233    2  -4 -38   4    9402.   12256.    1326. o
      3233    1   4  38  -4    9402.   12256.    1326. o
      3234    2   4 -38  -2   10701.   10205.     907. o
      3234    1  -2  38   4   10701.   10205.     907. o
      3235    2  -4 -38   2   10942.   13056.    1728. o
      3235    1   2  38  -4   10942.   13056.    1728. o
      3236    2   4 -38   0   13732.   18811.    1342. o
      3236    1   0  38   4   13732.   18811.    1342. o
      3237    2  -4 -38   0   15493.   13615.    1231. o
      3237    1   0  38  -4   15493.   13615.    1231. o
      3238    2   4 -38   2   11204.   10871.    1013. o
      3238    1   2  38   4   11204.   10871.    1013. o
      3239    2  -4 -38  -2   10440.   11244.    1010. o
      3239    1  -2  38  -4   10440.   11244.    1010. o
      3240    2   4 -38   4    9020.   10258.    1036. o
      3240    1   4  38   4    9020.   10258.    1036. o
      3241    2  -4 -38  -4    9939.   11537.    1489. o
      3241    1  -4  38  -4    9939.   11537.    1489. o
      3242    2   4 -38   6    6738.    2851.    1522. <
      3242    1   6  38   4    6738.    2851.    1522. <
      3243    2  -4 -38  -6    6585.    5702.    1174. o
      3243    1  -6  38  -4    6585.    5702.    1174. o
      3244    1  -5  39   4     586.     746.     773. <
      3245    1   5  39  -4     528.   -1625.    1758. <
      3246    1  -3  39   4     725.    2238.     878. o
      3247    1   3  39  -4     803.     133.    1386. <
      3248    1  -1  39   4    1846.    2371.    1145. o
      3249    1   1  39  -4    1764.    1705.    1172. <
      3250    1   1  39   4    1764.    1386.     933. <
      3251    1  -1  39  -4    1846.    3224.    1251. o
      3252    1   3  39   4     803.    1759.    1332. <
      3253    1  -3  39  -4     725.    1838.    1012. <
      3254    1   5  39   4     528.     773.     986. <
      3255    1  -5  39  -4     586.    2691.    1411. <
      3256    2   4 -40  -4    6593.    3650.     751. o
      3256    1  -4  40   4    6593.    3650.     751. o
      3257    2  -4 -40   4    6589.    5009.    1893. o
      3257    1   4  40  -4    6589.    5009.    1893. o
      3258    2   4 -40  -2    7770.   13962.     938. o
      3258    1  -2  40   4    7770.   13962.     938. o
      3259    2  -4 -40   2    7786.   15987.    1876. o
      3259    1   2  40  -4    7786.   15987.    1876. o
      3260    2   4 -40   0    9457.    6395.    1284. o
      3260    1   0  40   4    9457.    6395.    1284. o
      3261    2  -4 -40   0    9628.    3037.    1101. o
      3261    1   0  40  -4    9628.    3037.    1101. o
      3262    2   4 -40   2    7399.   12203.     999. o
      3262    1   2  40   4    7399.   12203.     999. o
      3263    2  -4 -40  -2    8157.   13136.     997. o
      3263    1  -2  40  -4    8157.   13136.     997. o
      3264    2   4 -40   4    6580.    3117.     963. o
      3264    1   4  40   4    6580.    3117.     963. o
      3265    2  -4 -40  -4    6603.    4050.    1415. o
      3265    1  -4  40  -4    6603.    4050.    1415. o
      3266    1  -5  41   4     532.     453.     906. <
      3267    1   5  41  -4     525.     -27.    1226. <
      3268    1  -3  41   4    1483.    1412.     799. <
      3269    1  -1  41   4     748.     666.    1039. <
      3270    1   1  41  -4     767.    1865.    1145. <
      3271    1   1  41   4     767.    1119.    1359. <
      3272    1  -1  41  -4     748.    3144.    1411. o
      3273    1   3  41   4    1461.     879.    1226. <
      3274    1  -3  41  -4    1483.    -133.     933. <
      3275    1   5  41   4     525.    -799.    1359. <
      3276    1  -5  41  -4     532.    -187.    1412. <
      3277    2   4 -42  -4     581.    1492.     826. <
      3277    1  -4  42   4     581.    1492.     826. <
      3278    2  -4 -42   4     561.     560.    1918. <
      3278    1   4  42  -4     561.     560.    1918. <
      3279    2   4 -42  -2     634.     959.     746. <
      3279    1  -2  42   4     634.     959.     746. <
      3280    2  -4 -42   2     574.    -826.    1945. <
      3280    1   2  42  -4     574.    -826.    1945. <
      3281    2   4 -42   0    1388.    1838.    1066. <
      3281    1   0  42   4    1388.    1838.    1066. <
      3282    2  -4 -42   0    1571.    1492.    1226. <
      3282    1   0  42  -4    1571.    1492.    1226. <
      3283    2   4 -42   2     669.     -27.     933. <
      3283    1   2  42   4     669.     -27.     933. <
      3284    2  -4 -42  -2     538.     906.     932. <
      3284    1  -2  42  -4     538.     906.     932. <
      3285    2   4 -42   4     512.    -506.    1279. <
      3285    1   4  42   4     512.    -506.    1279. <
      3286    2  -4 -42  -4     630.    -133.    1332. <
      3286    1  -4  42  -4     630.    -133.    1332. <
      3287    1  -5  43   4     230.     453.     906. <
      3288    1   5  43  -4     207.    1332.    1305. <
      3289    1  -3  43   4    2197.     533.     720. <
      3290    1  -1  43   4    2007.     693.    1146. <
      3291    1   1  43  -4    1825.     -27.    1039. <
      3292    1   1  43   4    1825.    1039.     959. <
      3293    1  -1  43  -4    2007.    1705.     959. <
      3294    1   3  43   4    2205.    -853.    1332. <
      3295    1  -3  43  -4    2197.     906.     960. <
      3296    1   5  43   4     207.   -1146.    1252. <
      3297    1  -5  43  -4     230.    2478.    1438. <
      3298    2   4 -44  -4   17229.   14388.     945. o
      3298    1  -4  44   4   17229.   14388.     945. o
      3299    2  -4 -44   4   17138.   17772.    2183. o
      3299    1   4  44  -4   17138.   17772.    2183. o
      3300    2   4 -44  -2   26449.   38022.     902. o
      3300    1  -2  44   4   26449.   38022.     902. o
      3301    2  -4 -44   2   26217.   35091.    2393. o
      3301    1   2  44  -4   26217.   35091.    2393. o
      3302    2   4 -44   0   29428.   26618.    1532. o
      3302    1   0  44   4   29428.   26618.    1532. o
      3303    2  -4 -44   0   29787.   23607.    1573. o
      3303    1   0  44  -4   29787.   23607.    1573. o
      3304    2   4 -44   2   26880.   23021.    1167. o
      3304    1   2  44   4   26880.   23021.    1167. o
      3305    2  -4 -44  -2   25785.   28723.    1558. o
      3305    1  -2  44  -4   25785.   28723.    1558. o
      3306    2   4 -44   4   16910.   13855.    1447. o
      3306    1   4  44   4   16910.   13855.    1447. o
      3307    2  -4 -44  -4   17457.   14868.    1552. o
      3307    1  -4  44  -4   17457.   14868.    1552. o
      3308    1  -3  45   4     233.     107.     719. <
      3309    1  -1  45   4    1514.    1439.    1119. <
      3310    1   1  45  -4    1398.     586.    1173. <
      3311    1   1  45   4    1398.    1545.     959. <
      3312    1  -1  45  -4    1514.    1465.     959. <
      3313    1   3  45   4     258.   -1279.    1279. <
      3314    1  -3  45  -4     233.    1172.     932. <
      3315    2   4 -46  -4    3779.    5489.     770. o
      3315    1  -4  46   4    3779.    5489.     770. o
      3316    2  -4 -46   4    3764.    6848.    2023. o
      3316    1   4  46  -4    3764.    6848.    2023. o
      3317    2   4 -46  -2    8033.    6208.     963. o
      3317    1  -2  46   4    8033.    6208.     963. o
      3318    2  -4 -46   2    7828.    5808.    1920. o
      3318    1   2  46  -4    7828.    5808.    1920. o
      3319    2   4 -46   0    9069.   13082.    1350. o
      3319    1   0  46   4    9069.   13082.    1350. o
      3320    2  -4 -46   0    9050.   11670.    1300. o
      3320    1   0  46  -4    9050.   11670.    1300. o
      3321    2   4 -46   2    8201.    5595.    1362. o
      3321    1   2  46   4    8201.    5595.    1362. o
      3322    2  -4 -46  -2    7661.    4263.    1362. o
      3322    1  -2  46  -4    7661.    4263.    1362. o
      3323    2   4 -46   4    3727.    4450.    1012. o
      3323    1   4  46   4    3727.    4450.    1012. o
      3324    2  -4 -46  -4    3816.    4849.    1358. o
      3324    1  -4  46  -4    3816.    4849.    1358. o
      3325    1  -3  47   4    1050.     107.     906. <
      3326    1  -1  47   4     484.     213.    1092. <
      3327    1   1  47  -4     471.       0.     986. <
      3328    1   1  47   4     471.    2611.    1278. o
      3329    1  -1  47  -4     484.    1172.    1305. <
      3330    1   3  47   4    1050.    -160.    1306. <
      3331    1  -3  47  -4    1050.    -639.     986. <
      3332    2   4 -48  -2     583.    1306.     879. <
      3332    1  -2  48   4     583.    1306.     879. <
      3333    2  -4 -48   2     465.    1679.    1812. <
      3333    1   2  48  -4     465.    1679.    1812. <
      3334    2   4 -48   0    1782.     320.    1066. <
      3334    1   0  48   4    1782.     320.    1066. <
      3335    2  -4 -48   0    1578.     266.    1173. <
      3335    1   0  48  -4    1578.     266.    1173. <
      3336    2   4 -48   2     522.     480.    1359. <
      3336    1   2  48   4     522.     480.    1359. <
      3337    2  -4 -48  -2     526.    -613.    1385. <
      3337    1  -2  48  -4     526.    -613.    1385. <
      3338    1  -1  49   4     825.    1279.    1172. <
      3339    1   1  49  -4     801.     107.    1066. <
      3340    1   1  49   4     801.    -160.     853. <
      3341    1  -1  49  -4     825.    1386.    1279. <
      3342    2   4 -50   0    3780.    1012.    1307. <
      3342    1   0  50   4    3780.    1012.    1307. <
      3343    2  -4 -50   0    3802.    3144.    1333. o
      3343    1   0  50  -4    3802.    3144.    1333. o
      3344    2   5  -1  -7   53608.   58085.     943. o
      3344    1  -7   1   5   53608.   58085.     943. o
      3345    2  -5  -1   7   53369.   58005.     912. o
      3345    1   7   1  -5   53369.   58005.     912. o
      3346    2   5  -1  -5   34476.   38528.     690. o
      3346    1  -5   1   5   34476.   38528.     690. o
      3347    2  -5  -1   5   34383.   39540.     702. o
      3347    1   5   1  -5   34383.   39540.     702. o
      3348    2   5  -1  -3  235896.  239774.    1194. o
      3348    1  -3   1   5  235896.  239774.    1194. o
      3349    2  -5  -1   3  239412.  250431.    1051. o
      3349    1   3   1  -5  239412.  250431.    1051. o
      3350    2   5  -1  -1  197534.  197142.    1164. o
      3350    1  -1   1   5  197534.  197142.    1164. o
      3351    2   5  -1   1  189193.  194185.    2372. o
      3351    1   1   1   5  189193.  194185.    2372. o
      3352    2  -5  -1  -1  198445.  182328.    2084. o
      3352    1  -1   1  -5  198445.  182328.    2084. o
      3353    2   5  -1   3  240098.  249259.    2370. o
      3353    1   3   1   5  240098.  249259.    2370. o
      3354    2  -5  -1  -3  235209.  224933.    2550. o
      3354    1  -3   1  -5  235209.  224933.    2550. o
      3355    2   5  -1   5   34151.   40739.     972. o
      3355    1   5   1   5   34151.   40739.     972. o
      3356    2  -5  -1  -5   34708.   37675.    1473. o
      3356    1  -5   1  -5   34708.   37675.    1473. o
      3357    2   5  -1   7   54189.   47720.    1319. o
      3357    1   7   1   5   54189.   47720.    1319. o
      3358    2  -5  -1  -7   52788.   55660.    2219. o
      3358    1  -7   1  -5   52788.   55660.    2219. o
      3359    1  -8   2   5    2609.    -213.     640. <
      3360    1   8   2  -5    2699.     773.     641. <
      3361    1  -6   2   5    3317.     906.     801. <
      3362    1   6   2  -5    3219.     666.     588. <
      3363    1  -4   2   5    3597.     773.     509. <
      3364    1   4   2  -5    3694.     240.     774. <
      3365    1  -2   2   5    1354.    5196.     633. o
      3366    1   2   2  -5    1416.    1252.     799. <
      3367    1   2   2   5    1416.    2771.    2131. <
      3368    1  -2   2  -5    1354.    4050.     850. o
      3369    1   4   2   5    3694.     453.     961. <
      3370    1  -4   2  -5    3597.     719.    1253. <
      3371    1   6   2   5    3219.    1412.     668. o
      3372    1  -6   2  -5    3317.     959.    1466. <
      3373    1   8   2   5    2699.     506.     853. <
      3374    1  -8   2  -5    2609.    2158.    1892. <
      3375    2   5  -3  -7   12858.   14335.     685. o
      3375    1  -7   3   5   12858.   14335.     685. o
      3376    2  -5  -3   7   13086.   13908.     929. o
      3376    1   7   3  -5   13086.   13908.     929. o
      3377    2   5  -3  -5   15926.   16653.     634. o
      3377    1  -5   3   5   15926.   16653.     634. o
      3378    2  -5  -3   5   15674.   15214.     642. o
      3378    1   5   3  -5   15674.   15214.     642. o
      3379    2   5  -3  -3    9069.   15134.     855. o
      3379    1  -3   3   5    9069.   15134.     855. o
      3380    2  -5  -3   3    8572.   12470.     785. o
      3380    1   3   3  -5    8572.   12470.     785. o
      3381    2   5  -3  -1   16961.   16946.     586. o
      3381    1  -1   3   5   16961.   16946.     586. o
      3382    2   5  -3   1   18574.   14894.    1556. o
      3382    1   1   3   5   18574.   14894.    1556. o
      3383    2  -5  -3  -1   16406.   13535.    1155. o
      3383    1  -1   3  -5   16406.   13535.    1155. o
      3384    2   5  -3   3    9627.    7141.    1283. o
      3384    1   3   3   5    9627.    7141.    1283. o
      3385    2  -5  -3  -3    8014.    6421.     989. o
      3385    1  -3   3  -5    8014.    6421.     989. o
      3386    2   5  -3   5   15050.   15400.    1064. o
      3386    1   5   3   5   15050.   15400.    1064. o
      3387    2  -5  -3  -5   16550.   15667.    1495. o
      3387    1  -5   3  -5   16550.   15667.    1495. o
      3388    2   5  -3   7   13598.   11617.     781. o
      3388    1   7   3   5   13598.   11617.     781. o
      3389    2  -5  -3  -7   12346.   11111.    1867. o
      3389    1  -7   3  -5   12346.   11111.    1867. o
      3390    1  -8   4   5     549.    1119.     932. <
      3391    1   8   4  -5     562.    1359.     906. <
      3392    1  -6   4   5    2165.     480.     560. <
      3393    1   6   4  -5    2099.    2238.     799. o
      3394    1  -4   4   5    1378.     613.     640. <
      3395    1   4   4  -5    1251.     773.     799. <
      3396    1  -2   4   5    2742.    1172.     587. <
      3397    1   2   4  -5    2444.    2531.    1119. o
      3398    1   2   4   5    2444.    -533.    1732. <
      3399    1  -2   4  -5    2742.    1226.     987. <
      3400    1   4   4   5    1251.    1119.     906. <
      3401    1  -4   4  -5    1378.     426.     879. <
      3402    1   6   4   5    2099.     533.     960. <
      3403    1  -6   4  -5    2165.      27.    1679. <
      3404    1   8   4   5     562.     400.     719. <
      3405    1  -8   4  -5     549.     373.    1465. <
      3406    2   5  -5  -7    3721.    8739.     787. o
      3406    1  -7   5   5    3721.    8739.     787. o
      3407    2  -5  -5   7    3791.    6928.     659. o
      3407    1   7   5  -5    3791.    6928.     659. o
      3408    2   5  -5  -5    6948.    9272.     604. o
      3408    1  -5   5   5    6948.    9272.     604. o
      3409    2  -5  -5   5    6845.    9139.     712. o
      3409    1   5   5  -5    6845.    9139.     712. o
      3410    2   5  -5  -3    1613.   11670.     826. o
      3410    1  -3   5   5    1613.   11670.     826. o
      3411    2  -5  -5   3    1568.   12683.    1231. o
      3411    1   3   5  -5    1568.   12683.    1231. o
      3412    2   5  -5  -1   15780.   13082.     603. o
      3412    1  -1   5   5   15780.   13082.     603. o
      3413    2   5  -5   1   15548.    9965.    1082. o
      3413    1   1   5   5   15548.    9965.    1082. o
      3414    2  -5  -5  -1   16502.    9965.    1112. o
      3414    1  -1   5  -5   16502.    9965.    1112. o
      3415    2   5  -5   3    1602.    3277.    1438. o
      3415    1   3   5   5    1602.    3277.    1438. o
      3416    2  -5  -5  -3    1579.    2851.     798. o
      3416    1  -3   5  -5    1579.    2851.     798. o
      3417    2   5  -5   5    6590.    8100.    1036. o
      3417    1   5   5   5    6590.    8100.    1036. o
      3418    2  -5  -5  -5    7204.    7407.    1492. o
      3418    1  -5   5  -5    7204.    7407.    1492. o
      3419    2   5  -5   7    3903.    3091.    1013. o
      3419    1   7   5   5    3903.    3091.    1013. o
      3420    2  -5  -5  -7    3608.    5009.    1838. o
      3420    1  -7   5  -5    3608.    5009.    1838. o
      3421    1  -8   6   5    1000.    1625.     639. o
      3422    1   8   6  -5    1001.    1785.     772. o
      3423    1  -6   6   5    2672.     933.     561. <
      3424    1   6   6  -5    2663.    1039.     720. <
      3425    1  -4   6   5     878.     773.     533. <
      3426    1   4   6  -5     871.    3064.     691. o
      3427    1  -2   6   5    3955.       0.     535. <
      3428    1   2   6  -5    4035.    1679.    1120. <
      3429    1   2   6   5    4035.     320.    1546. <
      3430    1  -2   6  -5    3955.    -107.     934. <
      3431    1   4   6   5     871.    2211.     905. o
      3432    1  -4   6  -5     878.    2958.    1145. o
      3433    1   6   6   5    2663.    1172.     827. <
      3434    1  -6   6  -5    2672.    2265.    1652. <
      3435    1   8   6   5    1001.    1252.     959. <
      3436    1  -8   6  -5    1000.    -240.    1705. <
      3437    2   5  -7  -7   59139.   71008.     843. o
      3437    1  -7   7   5   59139.   71008.     843. o
      3438    2  -5  -7   7   58053.   63414.     980. o
      3438    1   7   7  -5   58053.   63414.     980. o
      3439    2   5  -7  -5   32875.   40286.     760. o
      3439    1  -5   7   5   32875.   40286.     760. o
      3440    2  -5  -7   5   32190.   37942.     785. o
      3440    1   5   7  -5   32190.   37942.     785. o
      3441    2   5  -7  -3  197543.  223094.    4292. o
      3441    1  -3   7   5  197543.  223094.    4292. o
      3442    2  -5  -7   3  203573.  223121.    1622. o
      3442    1   3   7  -5  203573.  223121.    1622. o
      3443    2   5  -7  -1  136764.  118008.    1453. o
      3443    1  -1   7   5  136764.  118008.    1453. o
      3444    2   5  -7   1  124603.  117902.    1777. o
      3444    1   1   7   5  124603.  117902.    1777. o
      3445    2  -5  -7  -1  137173.  116729.    2474. o
      3445    1  -1   7  -5  137173.  116729.    2474. o
      3446    2   5  -7   3  203554.  214062.    2374. o
      3446    1   3   7   5  203554.  214062.    2374. o
      3447    2  -5  -7  -3  197562.  194798.    2224. o
      3447    1  -3   7  -5  197562.  194798.    2224. o
      3448    2   5  -7   5   30489.   38555.    1076. o
      3448    1   5   7   5   30489.   38555.    1076. o
      3449    2  -5  -7  -5   34576.   37142.    1502. o
      3449    1  -5   7  -5   34576.   37142.    1502. o
      3450    2   5  -7   7   58564.   63387.    1271. o
      3450    1   7   7   5   58564.   63387.    1271. o
      3451    2  -5  -7  -7   58628.   60590.    1929. o
      3451    1  -7   7  -5   58628.   60590.    1929. o
      3452    1  -8   8   5    2023.     799.     800. <
      3453    1   8   8  -5    2052.     799.     640. <
      3454    1  -6   8   5    2634.    2984.     826. o
      3455    1   6   8  -5    2582.    2291.     826. o
      3456    1  -4   8   5    2254.    1759.     640. o
      3457    1   4   8  -5    2440.    1759.     693. o
      3458    1  -2   8   5    4525.   16759.     630. o
      3459    1   2   8  -5    4139.   13322.     960. o
      3460    1   2   8   5    4139.   10924.    1830. o
      3461    1  -2   8  -5    4525.   15667.     977. o
      3462    1   4   8   5    2440.    3251.    1172. o
      3463    1  -4   8  -5    2254.    2718.    1305. o
      3464    1   6   8   5    2582.    3730.     878. o
      3465    1  -6   8  -5    2634.    3331.    1572. o
      3466    1   8   8   5    2052.     -53.     986. <
      3467    1  -8   8  -5    2023.    2025.    1332. <
      3468    2   5  -9  -7   10344.   14042.     838. o
      3468    1  -7   9   5   10344.   14042.     838. o
      3469    2  -5  -9   7    9953.   12656.     708. o
      3469    1   7   9  -5    9953.   12656.     708. o
      3470    2   5  -9  -5    1704.    3144.     691. o
      3470    1  -5   9   5    1704.    3144.     691. o
      3471    2  -5  -9   5    1594.    2771.     692. o
      3471    1   5   9  -5    1594.    2771.     692. o
      3472    2   5  -9  -3   36354.   48466.     629. o
      3472    1  -3   9   5   36354.   48466.     629. o
      3473    2  -5  -9   3   37644.   46415.    1338. o
      3473    1   3   9  -5   37644.   46415.    1338. o
      3474    2   5  -9  -1   15420.   10232.     691. o
      3474    1  -1   9   5   15420.   10232.     691. o
      3475    2   5  -9   1   12504.    8473.     865. o
      3475    1   1   9   5   12504.    8473.     865. o
      3476    2  -5  -9  -1   15090.    6128.    1191. o
      3476    1  -1   9  -5   15090.    6128.    1191. o
      3477    2   5  -9   3   37840.   39594.    1480. o
      3477    1   3   9   5   37840.   39594.    1480. o
      3478    2  -5  -9  -3   36159.   37622.    1241. o
      3478    1  -3   9  -5   36159.   37622.    1241. o
      3479    2   5  -9   5    1320.    3144.    1038. o
      3479    1   5   9   5    1320.    3144.    1038. o
      3480    2  -5  -9  -5    1979.    2345.    1225. <
      3480    1  -5   9  -5    1979.    2345.    1225. <
      3481    2   5  -9   7    9844.    8393.     910. o
      3481    1   7   9   5    9844.    8393.     910. o
      3482    2  -5  -9  -7   10453.    7620.    1550. o
      3482    1  -7   9  -5   10453.    7620.    1550. o
      3483    1  -8  10   5      19.     879.     826. <
      3484    1   8  10  -5      15.    -506.     799. <
      3485    1  -6  10   5     935.    1306.     693. <
      3486    1   6  10  -5    1011.    1386.     719. <
      3487    1  -4  10   5     156.    1226.     799. <
      3488    1   4  10  -5     143.     373.    1199. <
      3489    1  -2  10   5      27.    3490.     663. o
      3490    1   2  10  -5      31.    3517.     903. o
      3491    1   2  10   5      31.    2398.    1305. <
      3492    1  -2  10  -5      27.    4396.    1810. o
      3493    1   4  10   5     143.    1012.     932. <
      3494    1  -4  10  -5     156.    1039.    1039. <
      3495    1   6  10   5    1011.    1599.    1066. <
      3496    1  -6  10  -5     935.    2585.    1465. <
      3497    1   8  10   5      15.    -240.     959. <
      3498    1  -8  10  -5      19.    1359.    1758. <
      3499    2   5 -11  -7   19399.   25206.     976. o
      3499    1  -7  11   5   19399.   25206.     976. o
      3500    2  -5 -11   7   19687.   20889.     764. o
      3500    1   7  11  -5   19687.   20889.     764. o
      3501    2   5 -11  -5   34672.   35357.     845. o
      3501    1  -5  11   5   34672.   35357.     845. o
      3502    2  -5 -11   5   34213.   34398.     957. o
      3502    1   5  11  -5   34213.   34398.     957. o
      3503    2   5 -11  -3   28454.   33466.     716. o
      3503    1  -3  11   5   28454.   33466.     716. o
      3504    2  -5 -11   3   27251.   34291.    1342. o
      3504    1   3  11  -5   27251.   34291.    1342. o
      3505    2   5 -11  -1   68735.   67570.     929. o
      3505    1  -1  11   5   68735.   67570.     929. o
      3506    2  -5 -11   1   69252.   64799.    1881. o
      3506    1   1  11  -5   69252.   64799.    1881. o
      3507    2   5 -11   1   69087.   68929.    1414. o
      3507    1   1  11   5   69087.   68929.    1414. o
      3508    2  -5 -11  -1   68900.   56113.    1797. o
      3508    1  -1  11  -5   68900.   56113.    1797. o
      3509    2   5 -11   3   28106.   30668.    1505. o
      3509    1   3  11   5   28106.   30668.    1505. o
      3510    2  -5 -11  -3   27600.   31094.    1419. o
      3510    1  -3  11  -5   27600.   31094.    1419. o
      3511    2   5 -11   5   33074.   32080.    1127. o
      3511    1   5  11   5   33074.   32080.    1127. o
      3512    2  -5 -11  -5   35812.   32986.    1615. o
      3512    1  -5  11  -5   35812.   32986.    1615. o
      3513    2   5 -11   7   20260.   18491.     969. o
      3513    1   7  11   5   20260.   18491.     969. o
      3514    2  -5 -11  -7   18826.   18678.    1546. o
      3514    1  -7  11  -5   18826.   18678.    1546. o
      3515    1  -8  12   5    2388.    1172.     800. <
      3516    1   8  12  -5    2454.     213.     800. <
      3517    1  -6  12   5    2538.    2425.     693. o
      3518    1   6  12  -5    2464.    1306.     827. <
      3519    1  -4  12   5    2821.    3331.     585. o
      3520    1   4  12  -5    2745.    1545.     827. <
      3521    1  -2  12   5    5402.    -240.     538. <
      3522    1   2  12  -5    5563.     160.     803. <
      3523    1   2  12   5    5563.     746.    1015. <
      3524    1  -2  12  -5    5402.    1918.    1787. <
      3525    1   4  12   5    2745.    2531.    1013. o
      3526    1  -4  12  -5    2821.    2798.    1119. o
      3527    1   6  12   5    2464.      53.    1040. <
      3528    1  -6  12  -5    2538.    1146.    1200. <
      3529    1   8  12   5    2454.     719.     853. <
      3530    1  -8  12  -5    2388.    2185.    1492. <
      3531    2   5 -13  -7    9027.   13189.     918. o
      3531    1  -7  13   5    9027.   13189.     918. o
      3532    2  -5 -13   7    8747.   12923.     837. o
      3532    1   7  13  -5    8747.   12923.     837. o
      3533    2   5 -13  -5    4721.    5808.     744. o
      3533    1  -5  13   5    4721.    5808.     744. o
      3534    2  -5 -13   5    4736.    4823.     879. o
      3534    1   5  13  -5    4736.    4823.     879. o
      3535    2   5 -13  -3   59739.   71620.     458. o
      3535    1  -3  13   5   59739.   71620.     458. o
      3536    2  -5 -13   3   60978.   57232.    1324. o
      3536    1   3  13  -5   60978.   57232.    1324. o
      3537    2   5 -13  -1   42177.   35997.     802. o
      3537    1  -1  13   5   42177.   35997.     802. o
      3538    2   5 -13   1   40297.   35117.    1344. o
      3538    1   1  13   5   40297.   35117.    1344. o
      3539    2  -5 -13  -1   42360.   30588.    1588. o
      3539    1  -1  13  -5   42360.   30588.    1588. o
      3540    2   5 -13   3   61213.   63174.    1659. o
      3540    1   3  13   5   61213.   63174.    1659. o
      3541    2  -5 -13  -3   59504.   56726.    1494. o
      3541    1  -3  13  -5   59504.   56726.    1494. o
      3542    2   5 -13   5    4774.    5835.    1091. o
      3542    1   5  13   5    4774.    5835.    1091. o
      3543    2  -5 -13  -5    4683.    5942.    1331. o
      3543    1  -5  13  -5    4683.    5942.    1331. o
      3544    2   5 -13   7    8854.   10098.    1036. o
      3544    1   7  13   5    8854.   10098.    1036. o
      3545    2  -5 -13  -7    8921.    9779.    1517. o
      3545    1  -7  13  -5    8921.    9779.    1517. o
      3546    1  -8  14   5     328.     773.     853. <
      3547    1   8  14  -5     314.     346.     933. <
      3548    1  -6  14   5     221.    1332.     719. <
      3549    1   6  14  -5     215.     666.     613. <
      3550    1  -4  14   5     526.     533.     586. <
      3551    1   4  14  -5     560.     693.    1172. <
      3552    1  -2  14   5    7438.     533.     674. <
      3553    1   2  14  -5    7248.    -560.     831. <
      3554    1   2  14   5    7248.      27.     938. <
      3555    1  -2  14  -5    7438.     986.    1283. <
      3556    1   4  14   5     560.     266.    1013. <
      3557    1  -4  14  -5     526.     693.    1012. <
      3558    1   6  14   5     215.     853.     826. <
      3559    1  -6  14  -5     221.     480.    1146. <
      3560    1   8  14   5     314.     373.    1012. <
      3561    1  -8  14  -5     328.    1865.    1572. <
      3562    2   5 -15  -7   55557.   61549.     972. o
      3562    1  -7  15   5   55557.   61549.     972. o
      3563    2  -5 -15   7   55434.   55874.    1086. o
      3563    1   7  15  -5   55434.   55874.    1086. o
      3564    2   5 -15  -5   56742.   61202.     705. o
      3564    1  -5  15   5   56742.   61202.     705. o
      3565    2  -5 -15   5   56846.   64906.    1541. o
      3565    1   5  15  -5   56846.   64906.    1541. o
      3566    2   5 -15  -3  240845.  241692.    1180. o
      3566    1  -3  15   5  240845.  241692.    1180. o
      3567    2  -5 -15   3  244363.  256720.    1829. o
      3567    1   3  15  -5  244363.  256720.    1829. o
      3568    2   5 -15  -1  222721.  225386.    1265. o
      3568    1  -1  15   5  222721.  225386.    1265. o
      3569    2   5 -15   1  214653.  238361.    1759. o
      3569    1   1  15   5  214653.  238361.    1759. o
      3570    2  -5 -15  -1  223928.  184113.    3339. o
      3570    1  -1  15  -5  223928.  184113.    3339. o
      3571    2   5 -15   3  246187.  220057.    2640. o
      3571    1   3  15   5  246187.  220057.    2640. o
      3572    2  -5 -15  -3  239021.  227650.    3535. o
      3572    1  -3  15  -5  239021.  227650.    3535. o
      3573    2   5 -15   5   57105.   54168.    1286. o
      3573    1   5  15   5   57105.   54168.    1286. o
      3574    2  -5 -15  -5   56482.   56779.    1596. o
      3574    1  -5  15  -5   56482.   56779.    1596. o
      3575    2   5 -15   7   56123.   53502.    1334. o
      3575    1   7  15   5   56123.   53502.    1334. o
      3576    2  -5 -15  -7   54868.   57632.    1626. o
      3576    1  -7  15  -5   54868.   57632.    1626. o
      3577    1  -8  16   5     975.    1386.     932. <
      3578    1   8  16  -5    1036.    1012.     933. <
      3579    1  -6  16   5    1062.    1359.     559. o
      3580    1   6  16  -5    1022.     826.     879. <
      3581    1  -4  16   5    2579.    3943.     557. o
      3582    1   4  16  -5    2669.    1625.    1279. <
      3583    1  -2  16   5     594.    2531.     558. o
      3584    1   2  16  -5     641.    1625.     879. <
      3585    1   2  16   5     641.    1146.    1066. <
      3586    1  -2  16  -5     594.    2211.    1358. <
      3587    1   4  16   5    2669.    4290.    1091. o
      3588    1  -4  16  -5    2579.    3704.    1251. o
      3589    1   6  16   5    1022.     959.     959. <
      3590    1  -6  16  -5    1062.     453.    1252. <
      3591    1   8  16   5    1036.    -480.     986. <
      3592    1  -8  16  -5     975.    -160.    1306. <
      3593    2   5 -17  -7    3510.    3277.     773. o
      3593    1  -7  17   5    3510.    3277.     773. o
      3594    2  -5 -17   7    3622.    4583.     825. o
      3594    1   7  17  -5    3622.    4583.     825. o
      3595    2   5 -17  -5     203.    1652.     559. o
      3595    1  -5  17   5     203.    1652.     559. o
      3596    2  -5 -17   5     185.    2052.     878. o
      3596    1   5  17  -5     185.    2052.     878. o
      3597    2   5 -17  -3   16465.   20650.     661. o
      3597    1  -3  17   5   16465.   20650.     661. o
      3598    2  -5 -17   3   16211.   22168.    1416. o
      3598    1   3  17  -5   16211.   22168.    1416. o
      3599    2   5 -17  -1    7595.    5968.     750. o
      3599    1  -1  17   5    7595.    5968.     750. o
      3600    2   5 -17   1    7664.    6608.    1201. o
      3600    1   1  17   5    7664.    6608.    1201. o
      3601    2  -5 -17  -1    7598.    2531.    1709. <
      3601    1  -1  17  -5    7598.    2531.    1709. <
      3602    2   5 -17   3   16630.   12736.     948. o
      3602    1   3  17   5   16630.   12736.     948. o
      3603    2  -5 -17  -3   16047.   11537.    1741. o
      3603    1  -3  17  -5   16047.   11537.    1741. o
      3604    2   5 -17   5     139.    1119.     932. <
      3604    1   5  17   5     139.    1119.     932. <
      3605    2  -5 -17  -5     249.     879.    1039. <
      3605    1  -5  17  -5     249.     879.    1039. <
      3606    2   5 -17   7    3720.     346.     934. <
      3606    1   7  17   5    3720.     346.     934. <
      3607    2  -5 -17  -7    3412.    2052.    1386. <
      3607    1  -7  17  -5    3412.    2052.    1386. <
      3608    1  -8  18   5     660.     719.     906. <
      3609    1   8  18  -5     618.    1172.     932. <
      3610    1  -6  18   5     820.    -213.     533. <
      3611    1   6  18  -5     896.    -373.     933. <
      3612    1  -4  18   5    1807.    -266.     640. <
      3613    1   4  18  -5    1649.    1226.    1226. <
      3614    1  -2  18   5     589.    1439.     506. o
      3615    1   2  18  -5     683.    1625.     932. <
      3616    1   2  18   5     683.    1705.    1065. <
      3617    1  -2  18  -5     589.    1705.    1838. <
      3618    1   4  18   5    1649.     853.     959. <
      3619    1  -4  18  -5    1807.   -1785.    1758. <
      3620    1   6  18   5     896.     -27.     906. <
      3621    1  -6  18  -5     820.     -80.    1146. <
      3622    1   8  18   5     618.     480.     959. <
      3623    1  -8  18  -5     660.    1039.    1492. <
      3624    2   5 -19  -7    7400.    9539.     847. o
      3624    1  -7  19   5    7400.    9539.     847. o
      3625    2  -5 -19   7    7541.    9326.    1463. o
      3625    1   7  19  -5    7541.    9326.    1463. o
      3626    2   5 -19  -5   17317.   15987.     701. o
      3626    1  -5  19   5   17317.   15987.     701. o
      3627    2  -5 -19   5   17050.   16679.    1094. o
      3627    1   5  19  -5   17050.   16679.    1094. o
      3628    2   5 -19  -3    5710.   10205.     596. o
      3628    1  -3  19   5    5710.   10205.     596. o
      3629    2  -5 -19   3    5479.   11324.    1294. o
      3629    1   3  19  -5    5479.   11324.    1294. o
      3630    2   5 -19  -1   18960.   17719.     965. o
      3630    1  -1  19   5   18960.   17719.     965. o
      3631    2   5 -19   1   20072.   17719.    1288. o
      3631    1   1  19   5   20072.   17719.    1288. o
      3632    2  -5 -19  -1   19298.   12949.    1351. o
      3632    1  -1  19  -5   19298.   12949.    1351. o
      3633    2   5 -19   3    5969.    5782.    1253. o
      3633    1   3  19   5    5969.    5782.    1253. o
      3634    2  -5 -19  -3    5219.    6768.    1410. o
      3634    1  -3  19  -5    5219.    6768.    1410. o
      3635    2   5 -19   5   16390.   15400.    1388. o
      3635    1   5  19   5   16390.   15400.    1388. o
      3636    2  -5 -19  -5   17978.   14441.    1343. o
      3636    1  -5  19  -5   17978.   14441.    1343. o
      3637    2   5 -19   7    7904.    5995.    1096. o
      3637    1   7  19   5    7904.    5995.    1096. o
      3638    2  -5 -19  -7    7037.    7301.    1199. o
      3638    1  -7  19  -5    7037.    7301.    1199. o
      3639    1  -8  20   5     148.    -320.     879. <
      3640    1   8  20  -5     155.   -1625.    1492. <
      3641    1  -6  20   5     839.    1412.     559. o
      3642    1   6  20  -5     837.     666.     933. <
      3643    1  -4  20   5     114.    3011.     717. o
      3644    1   4  20  -5     129.    2238.     905. o
      3645    1  -2  20   5    1335.     719.     560. <
      3646    1   2  20  -5    1317.     879.    1172. <
      3647    1   2  20   5    1317.    1066.     986. <
      3648    1  -2  20  -5    1335.    2984.    1998. <
      3649    1   4  20   5     129.    3597.    1357. o
      3650    1  -4  20  -5     114.     826.    1279. <
      3651    1   6  20   5     837.     719.    1119. <
      3652    1  -6  20  -5     839.     506.    1252. <
      3653    1   8  20   5     155.    1359.    1065. <
      3654    1  -8  20  -5     148.     266.    1386. <
      3655    2   5 -21  -7   14529.   17426.     674. o
      3655    1  -7  21   5   14529.   17426.     674. o
      3656    2  -5 -21   7   14018.   20783.    1524. o
      3656    1   7  21  -5   14018.   20783.    1524. o
      3657    2   5 -21  -5   11827.   11644.     747. o
      3657    1  -5  21   5   11827.   11644.     747. o
      3658    2  -5 -21   5   11677.   10125.    1123. o
      3658    1   5  21  -5   11677.   10125.    1123. o
      3659    2   5 -21  -3   59436.   71061.     515. o
      3659    1  -3  21   5   59436.   71061.     515. o
      3660    2  -5 -21   3   60657.   72899.    1597. o
      3660    1   3  21  -5   60657.   72899.    1597. o
      3661    2   5 -21  -1   45827.   37782.    1144. o
      3661    1  -1  21   5   45827.   37782.    1144. o
      3662    2  -5 -21   1   41720.   39247.    1694. o
      3662    1   1  21  -5   41720.   39247.    1694. o
      3663    2   5 -21   1   41530.   41512.    1466. o
      3663    1   1  21   5   41530.   41512.    1466. o
      3664    2  -5 -21  -1   46016.   32959.    1627. o
      3664    1  -1  21  -5   46016.   32959.    1627. o
      3665    2   5 -21   3   60263.   61229.    1696. o
      3665    1   3  21   5   60263.   61229.    1696. o
      3666    2  -5 -21  -3   59830.   58351.    2302. o
      3666    1  -3  21  -5   59830.   58351.    2302. o
      3667    2   5 -21   5   11307.   10418.    1627. o
      3667    1   5  21   5   11307.   10418.    1627. o
      3668    2  -5 -21  -5   12197.   10578.    1309. o
      3668    1  -5  21  -5   12197.   10578.    1309. o
      3669    2   5 -21   7   13962.   13162.    1122. o
      3669    1   7  21   5   13962.   13162.    1122. o
      3670    2  -5 -21  -7   14586.   14654.    1598. o
      3670    1  -7  21  -5   14586.   14654.    1598. o
      3671    1  -6  22   5     179.    1119.     586. <
      3672    1   6  22  -5     138.    1625.    1039. <
      3673    1  -4  22   5    3517.    1332.     641. o
      3674    1   4  22  -5    3540.    1252.    1280. <
      3675    1  -2  22   5     968.    2558.     505. o
      3676    1   2  22   5     940.    2531.    1332. <
      3677    1  -2  22  -5     968.    1732.    1892. <
      3678    1   4  22   5    3540.    1759.    1173. <
      3679    1  -4  22  -5    3517.    2265.    1652. <
      3680    1   6  22   5     138.    2185.    1225. <
      3681    1  -6  22  -5     179.    1306.    1145. <
      3682    2   5 -23  -7   18146.   18784.     715. o
      3682    1  -7  23   5   18146.   18784.     715. o
      3683    2  -5 -23   7   17695.   17745.    1572. o
      3683    1   7  23  -5   17695.   17745.    1572. o
      3684    2   5 -23  -5   13540.   17186.     725. o
      3684    1  -5  23   5   13540.   17186.     725. o
      3685    2  -5 -23   5   13561.   16786.    1563. o
      3685    1   5  23  -5   13561.   16786.    1563. o
      3686    2   5 -23  -3   59199.   68050.     612. o
      3686    1  -3  23   5   59199.   68050.     612. o
      3687    2  -5 -23   3   60861.   63680.    1406. o
      3687    1   3  23  -5   60861.   63680.    1406. o
      3688    2   5 -23  -1   41983.   44336.    1094. o
      3688    1  -1  23   5   41983.   44336.    1094. o
      3689    2  -5 -23   1   38855.   43537.    1701. o
      3689    1   1  23  -5   38855.   43537.    1701. o
      3690    2   5 -23   1   38617.   40100.    1562. o
      3690    1   1  23   5   38617.   40100.    1562. o
      3691    2  -5 -23  -1   42221.   30108.    1769. o
      3691    1  -1  23  -5   42221.   30108.    1769. o
      3692    2   5 -23   3   60585.   61336.    2099. o
      3692    1   3  23   5   60585.   61336.    2099. o
      3693    2  -5 -23  -3   59475.   58218.    2167. o
      3693    1  -3  23  -5   59475.   58218.    2167. o
      3694    2   5 -23   5   13612.   16493.    1939. o
      3694    1   5  23   5   13612.   16493.    1939. o
      3695    2  -5 -23  -5   13488.   17399.    1695. o
      3695    1  -5  23  -5   13488.   17399.    1695. o
      3696    2   5 -23   7   17567.   15400.    1313. o
      3696    1   7  23   5   17567.   15400.    1313. o
      3697    2  -5 -23  -7   18275.   13402.    1532. o
      3697    1  -7  23  -5   18275.   13402.    1532. o
      3698    1  -6  24   5     191.    2238.     665. o
      3699    1   6  24  -5     158.     -80.    1092. <
      3700    1  -4  24   5     468.     586.     639. <
      3701    1   4  24  -5     399.    1492.    1359. <
      3702    1  -2  24   5    1050.    8979.     673. o
      3703    1   2  24   5    1025.    8686.    1376. o
      3704    1  -2  24  -5    1050.    8659.    1403. o
      3705    1   4  24   5     399.    1732.    1625. <
      3706    1  -4  24  -5     468.    -426.    1146. <
      3707    1   6  24   5     158.   -1172.    1945. <
      3708    1  -6  24  -5     191.    4077.    1223. o
      3709    2   5 -25  -7    5842.    5302.     720. o
      3709    1  -7  25   5    5842.    5302.     720. o
      3710    2  -5 -25   7    6007.    6901.    1518. o
      3710    1   7  25  -5    6007.    6901.    1518. o
      3711    2   5 -25  -5   13960.   14068.     666. o
      3711    1  -5  25   5   13960.   14068.     666. o
      3712    2  -5 -25   5   13765.   11697.    1152. o
      3712    1   5  25  -5   13765.   11697.    1152. o
      3713    2   5 -25  -3    6712.    9272.     630. o
      3713    1  -3  25   5    6712.    9272.     630. o
      3714    2  -5 -25   3    6391.   10738.    1378. o
      3714    1   3  25  -5    6391.   10738.    1378. o
      3715    2   5 -25  -1   22300.   19211.     924. o
      3715    1  -1  25   5   22300.   19211.     924. o
      3716    2  -5 -25   1   23057.   24486.    1566. o
      3716    1   1  25  -5   23057.   24486.    1566. o
      3717    2   5 -25   1   22470.   21182.    1497. o
      3717    1   1  25   5   22470.   21182.    1497. o
      3718    2  -5 -25  -1   22887.   14841.    1938. o
      3718    1  -1  25  -5   22887.   14841.    1938. o
      3719    2   5 -25   3    6738.    6421.    1652. o
      3719    1   3  25   5    6738.    6421.    1652. o
      3720    2  -5 -25  -3    6364.    6208.    1199. o
      3720    1  -3  25  -5    6364.    6208.    1199. o
      3721    2   5 -25   5   13281.   11404.    1363. o
      3721    1   5  25   5   13281.   11404.    1363. o
      3722    2  -5 -25  -5   14443.   12336.    1285. o
      3722    1  -5  25  -5   14443.   12336.    1285. o
      3723    2   5 -25   7    6226.    2078.    1974. <
      3723    1   7  25   5    6226.    2078.    1974. <
      3724    2  -5 -25  -7    5623.    3410.    1627. o
      3724    1  -7  25  -5    5623.    3410.    1627. o
      3725    1  -6  26   5     391.    1599.     612. o
      3726    1   6  26  -5     379.     -53.    1092. <
      3727    1  -4  26   5     391.       0.     666. <
      3728    1   4  26  -5     427.     373.    1332. <
      3729    1  -2  26   5    1276.     -80.     693. <
      3730    1   2  26   5    1181.    1519.    1172. <
      3731    1  -2  26  -5    1276.     320.    1199. <
      3732    1   4  26   5     427.    1545.    1119. <
      3733    1  -4  26  -5     391.    -400.    1519. <
      3734    1   6  26   5     379.    1359.    1972. <
      3735    1  -6  26  -5     391.    -666.    1625. <
      3736    2   5 -27  -7    1319.    1572.     773. o
      3736    1  -7  27   5    1319.    1572.     773. o
      3737    2  -5 -27   7    1379.    3224.    1145. o
      3737    1   7  27  -5    1379.    3224.    1145. o
      3738    2   5 -27  -5    2661.    2531.     613. o
      3738    1  -5  27   5    2661.    2531.     613. o
      3739    2  -5 -27   5    2601.    2664.    1146. o
      3739    1   5  27  -5    2601.    2664.    1146. o
      3740    2   5 -27  -3    1442.    4210.     662. o
      3740    1  -3  27   5    1442.    4210.     662. o
      3741    2  -5 -27   3    1324.    4210.    1357. o
      3741    1   3  27  -5    1324.    4210.    1357. o
      3742    2   5 -27  -1    3497.    4157.     825. o
      3742    1  -1  27   5    3497.    4157.     825. o
      3743    2  -5 -27   1    3670.    2531.     934. o
      3743    1   1  27  -5    3670.    2531.     934. o
      3744    2   5 -27   1    3577.    3304.    1332. o
      3744    1   1  27   5    3577.    3304.    1332. o
      3745    2  -5 -27  -1    3590.    1119.    1280. <
      3745    1  -1  27  -5    3590.    1119.    1280. <
      3746    2   5 -27   3    1466.     613.    1173. <
      3746    1   3  27   5    1466.     613.    1173. <
      3747    2  -5 -27  -3    1299.     719.    1599. <
      3747    1  -3  27  -5    1299.     719.    1599. <
      3748    2   5 -27   5    2451.    2425.    1226. <
      3748    1   5  27   5    2451.    2425.    1226. <
      3749    2  -5 -27  -5    2811.    2691.    1172. o
      3749    1  -5  27  -5    2811.    2691.    1172. o
      3750    2   5 -27   7    1414.    1838.    1892. <
      3750    1   7  27   5    1414.    1838.    1892. <
      3751    2  -5 -27  -7    1284.    -266.    1652. <
      3751    1  -7  27  -5    1284.    -266.    1652. <
      3752    1  -6  28   5      54.     959.     693. <
      3753    1   6  28  -5      35.     826.    1492. <
      3754    1  -4  28   5     742.    2265.     612. o
      3755    1   4  28  -5     642.    1306.    1519. <
      3756    1  -2  28   5     453.     799.     693. <
      3757    1   2  28   5     381.   -1066.    1092. <
      3758    1  -2  28  -5     453.    1945.    1199. <
      3759    1   4  28   5     642.    2158.    1572. <
      3760    1  -4  28  -5     742.    1465.    1119. <
      3761    1   6  28   5      35.     933.    1785. <
      3762    1  -6  28  -5      54.    -613.    1146. <
      3763    2   5 -29  -7   19753.   17239.     788. o
      3763    1  -7  29   5   19753.   17239.     788. o
      3764    2  -5 -29   7   19365.   18678.    1734. o
      3764    1   7  29  -5   19365.   18678.    1734. o
      3765    2   5 -29  -5   28683.   29629.     817. o
      3765    1  -5  29   5   28683.   29629.     817. o
      3766    2  -5 -29   5   28892.   29602.    1435. o
      3766    1   5  29  -5   28892.   29602.    1435. o
      3767    2   5 -29  -3   84145.   94641.     791. o
      3767    1  -3  29   5   84145.   94641.     791. o
      3768    2  -5 -29   3   85879.  106445.    1888. o
      3768    1   3  29  -5   85879.  106445.    1888. o
      3769    2   5 -29  -1   81092.   90058.    1166. o
      3769    1  -1  29   5   81092.   90058.    1166. o
      3770    2  -5 -29   1   78266.   80866.    1591. o
      3770    1   1  29  -5   78266.   80866.    1591. o
      3771    2   5 -29   1   78961.   69569.    1884. o
      3771    1   1  29   5   78961.   69569.    1884. o
      3772    2  -5 -29  -1   80396.   64133.    1947. o
      3772    1  -1  29  -5   80396.   64133.    1947. o
      3773    2   5 -29   3   85873.   86222.    2021. o
      3773    1   3  29   5   85873.   86222.    2021. o
      3774    2  -5 -29  -3   84151.   73779.    1826. o
      3774    1  -3  29  -5   84151.   73779.    1826. o
      3775    2   5 -29   5   29412.   23873.    1413. o
      3775    1   5  29   5   29412.   23873.    1413. o
      3776    2  -5 -29  -5   28162.   27577.    1761. o
      3776    1  -5  29  -5   28162.   27577.    1761. o
      3777    2   5 -29   7   19467.   16493.    2218. o
      3777    1   7  29   5   19467.   16493.    2218. o
      3778    2  -5 -29  -7   19652.   19877.    1918. o
      3778    1  -7  29  -5   19652.   19877.    1918. o
      3779    1  -6  30   5     100.     453.     613. <
      3780    1   6  30  -5      55.    -959.    1492. <
      3781    1  -4  30   5      69.    1279.     666. <
      3782    1   4  30  -5      42.     293.    1039. <
      3783    1  -2  30   5     750.     293.     746. <
      3784    1   2  30   5     788.    -320.    1172. <
      3785    1  -2  30  -5     750.     426.    1625. <
      3786    1   4  30   5      42.    2824.    1064. o
      3787    1  -4  30  -5      69.    1492.    1545. <
      3788    1   6  30   5      55.    -933.    1679. <
      3789    1  -6  30  -5     100.    2345.    1172. <
      3790    2   5 -31  -5    6415.    6581.     692. o
      3790    1  -5  31   5    6415.    6581.     692. o
      3791    2  -5 -31   5    6504.    8553.    1649. o
      3791    1   5  31  -5    6504.    8553.    1649. o
      3792    2   5 -31  -3   33076.   37835.     854. o
      3792    1  -3  31   5   33076.   37835.     854. o
      3793    2  -5 -31   3   33522.   42445.    1759. o
      3793    1   3  31  -5   33522.   42445.    1759. o
      3794    2   5 -31  -1   28622.   30401.     998. o
      3794    1  -1  31   5   28622.   30401.     998. o
      3795    2  -5 -31   1   27660.   29309.    1350. o
      3795    1   1  31  -5   27660.   29309.    1350. o
      3796    2   5 -31   1   27982.   32533.    1953. o
      3796    1   1  31   5   27982.   32533.    1953. o
      3797    2  -5 -31  -1   28299.   22301.    1466. o
      3797    1  -1  31  -5   28299.   22301.    1466. o
      3798    2   5 -31   3   33242.   35064.    1588. o
      3798    1   3  31   5   33242.   35064.    1588. o
      3799    2  -5 -31  -3   33356.   27097.    1681. o
      3799    1  -3  31  -5   33356.   27097.    1681. o
      3800    2   5 -31   5    6724.    7887.    1571. o
      3800    1   5  31   5    6724.    7887.    1571. o
      3801    2  -5 -31  -5    6195.    5968.    1146. o
      3801    1  -5  31  -5    6195.    5968.    1146. o
      3802    1  -6  32   5      75.     187.     719. <
      3803    1   6  32  -5     101.    1439.    1225. <
      3804    1  -4  32   5      45.     666.     613. <
      3805    1   4  32  -5      52.    1439.    1119. <
      3806    1  -2  32   5    1632.      27.     800. <
      3807    1   2  32  -5    1653.    1679.    1386. <
      3808    1   2  32   5    1653.   -1519.    1065. <
      3809    1  -2  32  -5    1632.     293.    1093. <
      3810    1   4  32   5      52.    -293.    1465. <
      3811    1  -4  32  -5      45.     933.    1066. <
      3812    1   6  32   5     101.    1545.    1625. <
      3813    1  -6  32  -5      75.     240.    1625. <
      3814    2   5 -33  -5    5997.    5089.     615. o
      3814    1  -5  33   5    5997.    5089.     615. o
      3815    2  -5 -33   5    5869.    6315.    1305. o
      3815    1   5  33  -5    5869.    6315.    1305. o
      3816    2   5 -33  -3    3117.    3331.     586. o
      3816    1  -3  33   5    3117.    3331.     586. o
      3817    2  -5 -33   3    2933.    -639.     853. <
      3817    1   3  33  -5    2933.    -639.     853. <
      3818    2   5 -33  -1    5461.    6261.    1118. o
      3818    1  -1  33   5    5461.    6261.    1118. o
      3819    2  -5 -33   1    5896.    5808.    1226. o
      3819    1   1  33  -5    5896.    5808.    1226. o
      3820    2   5 -33   1    5833.    5755.    1199. o
      3820    1   1  33   5    5833.    5755.    1199. o
      3821    2  -5 -33  -1    5524.    6634.    1544. o
      3821    1  -1  33  -5    5524.    6634.    1544. o
      3822    2   5 -33   3    3332.    2478.    1066. o
      3822    1   3  33   5    3332.    2478.    1066. o
      3823    2  -5 -33  -3    2718.    1732.    1066. <
      3823    1  -3  33  -5    2718.    1732.    1066. <
      3824    2   5 -33   5    5553.    4370.    1120. o
      3824    1   5  33   5    5553.    4370.    1120. o
      3825    2  -5 -33  -5    6313.    5222.    1121. o
      3825    1  -5  33  -5    6313.    5222.    1121. o
      3826    1  -6  34   5      14.     400.     613. <
      3827    1   6  34  -5      17.    1119.    1599. <
      3828    1  -4  34   5     328.     986.     746. <
      3829    1   4  34  -5     331.    1679.    1598. <
      3830    1  -2  34   5     326.    1066.     719. <
      3831    1   2  34  -5     342.       0.    1465. <
      3832    1   2  34   5     342.     533.    1012. <
      3833    1  -2  34  -5     326.    2105.    1385. <
      3834    1   4  34   5     331.    1172.    1012. <
      3835    1  -4  34  -5     328.    1785.    1065. <
      3836    1   6  34   5      17.    1386.    1119. <
      3837    1  -6  34  -5      14.      80.    1519. <
      3838    2   5 -35  -5     596.    1652.     826. <
      3838    1  -5  35   5     596.    1652.     826. <
      3839    2  -5 -35   5     612.    3117.    1838. <
      3839    1   5  35  -5     612.    3117.    1838. <
      3840    2   5 -35  -3    6755.    8260.     715. o
      3840    1  -3  35   5    6755.    8260.     715. o
      3841    2   5 -35  -1    4969.    5835.    1065. o
      3841    1  -1  35   5    4969.    5835.    1065. o
      3842    2  -5 -35   1    4276.    4903.    1172. o
      3842    1   1  35  -5    4276.    4903.    1172. o
      3843    2   5 -35   1    4538.    2265.    1121. o
      3843    1   1  35   5    4538.    2265.    1121. o
      3844    2  -5 -35  -1    4706.    2798.    1467. <
      3844    1  -1  35  -5    4706.    2798.    1467. <
      3845    2   5 -35   3    6543.    4663.    1095. o
      3845    1   3  35   5    6543.    4663.    1095. o
      3846    2  -5 -35  -3    6969.    6022.    1520. o
      3846    1  -3  35  -5    6969.    6022.    1520. o
      3847    2   5 -35   5     652.     480.    1492. <
      3847    1   5  35   5     652.     480.    1492. <
      3848    2  -5 -35  -5     555.     160.    1519. <
      3848    1  -5  35  -5     555.     160.    1519. <
      3849    1  -4  36   5     217.     213.     719. <
      3850    1   4  36  -5     257.    -133.    1172. <
      3851    1  -2  36   5     306.     160.     693. <
      3852    1   2  36  -5     396.     666.    1519. <
      3853    1   2  36   5     396.    1785.    1012. <
      3854    1  -2  36  -5     306.     426.     959. <
      3855    1   4  36   5     257.     480.    1412. <
      3856    1  -4  36  -5     217.    -346.    1412. <
      3857    2   5 -37  -5   11101.   13056.     952. o
      3857    1  -5  37   5   11101.   13056.     952. o
      3858    2  -5 -37   5   11235.   11724.    1358. o
      3858    1   5  37  -5   11235.   11724.    1358. o
      3859    2   5 -37  -3   28951.   30801.     944. o
      3859    1  -3  37   5   28951.   30801.     944. o
      3860    2   5 -37  -1   27913.   29549.    1135. o
      3860    1  -1  37   5   27913.   29549.    1135. o
      3861    2  -5 -37   1   27008.   25099.    1368. o
      3861    1   1  37  -5   27008.   25099.    1368. o
      3862    2   5 -37   1   26958.   31760.    1763. o
      3862    1   1  37   5   26958.   31760.    1763. o
      3863    2  -5 -37  -1   27963.   20463.    1314. o
      3863    1  -1  37  -5   27963.   20463.    1314. o
      3864    2   5 -37   3   28788.   27577.    1286. o
      3864    1   3  37   5   28788.   27577.    1286. o
      3865    2  -5 -37  -3   29771.   24166.    1623. o
      3865    1  -3  37  -5   29771.   24166.    1623. o
      3866    2   5 -37   5   11567.    9059.    1151. o
      3866    1   5  37   5   11567.    9059.    1151. o
      3867    2  -5 -37  -5   10768.   11137.    1571. o
      3867    1  -5  37  -5   10768.   11137.    1571. o
      3868    1  -4  38   5     462.     933.     746. <
      3869    1   4  38  -5     436.    -933.    1785. <
      3870    1  -2  38   5    1090.    2318.     799. o
      3871    1   2  38  -5    1075.    1785.    1678. <
      3872    1   2  38   5    1075.     719.    1066. <
      3873    1  -2  38  -5    1090.     853.    1412. <
      3874    1   4  38   5     436.    1439.    1332. <
      3875    1  -4  38  -5     462.    1492.    1385. <
      3876    2   5 -39  -5     214.    1226.     692. <
      3876    1  -5  39   5     214.    1226.     692. <
      3877    2  -5 -39   5     204.    1146.    2025. <
      3877    1   5  39  -5     204.    1146.    2025. <
      3878    2   5 -39  -3    1506.    1306.     879. <
      3878    1  -3  39   5    1506.    1306.     879. <
      3879    2   5 -39  -1     483.    1625.    1039. <
      3879    1  -1  39   5     483.    1625.    1039. <
      3880    2  -5 -39   1     553.     586.     986. <
      3880    1   1  39  -5     553.     586.     986. <
      3881    2   5 -39   1     401.    1306.    1066. <
      3881    1   1  39   5     401.    1306.    1066. <
      3882    2  -5 -39  -1     636.   -1439.    1439. <
      3882    1  -1  39  -5     636.   -1439.    1439. <
      3883    2   5 -39   3    1477.    -160.     986. <
      3883    1   3  39   5    1477.    -160.     986. <
      3884    2  -5 -39  -3    1717.    1732.     986. <
      3884    1  -3  39  -5    1717.    1732.     986. <
      3885    2   5 -39   5     177.     266.    1412. <
      3885    1   5  39   5     177.     266.    1412. <
      3886    2  -5 -39  -5     242.     906.    1492. <
      3886    1  -5  39  -5     242.     906.    1492. <
      3887    1  -4  40   5     269.    1252.     639. <
      3888    1   4  40  -5     261.    2265.    1785. <
      3889    1  -2  40   5     384.    -213.     799. <
      3890    1   2  40  -5     385.    -346.    1199. <
      3891    1   2  40   5     385.    1412.    1385. <
      3892    1  -2  40  -5     384.     -80.    1332. <
      3893    1   4  40   5     261.   -1092.     986. <
      3894    1  -4  40  -5     269.     613.    1012. <
      3895    2   5 -41  -3    3553.    4157.     905. o
      3895    1  -3  41   5    3553.    4157.     905. o
      3896    2   5 -41  -1    6158.    9565.    1353. o
      3896    1  -1  41   5    6158.    9565.    1353. o
      3897    2  -5 -41   1    6257.    6768.    1092. o
      3897    1   1  41  -5    6257.    6768.    1092. o
      3898    2   5 -41   1    6220.    6368.    1119. o
      3898    1   1  41   5    6220.    6368.    1119. o
      3899    2  -5 -41  -1    6196.    4743.    1068. o
      3899    1  -1  41  -5    6196.    4743.    1068. o
      3900    2   5 -41   3    3588.    2105.    1014. o
      3900    1   3  41   5    3588.    2105.    1014. o
      3901    2  -5 -41  -3    3385.    2478.     987. o
      3901    1  -3  41  -5    3385.    2478.     987. o
      3902    1  -4  42   5      96.     959.     693. <
      3903    1   4  42  -5     103.     453.    1412. <
      3904    1  -2  42   5     596.    1838.     879. o
      3905    1   2  42  -5     630.   -1945.    1758. <
      3906    1   2  42   5     630.    1759.    1359. <
      3907    1  -2  42  -5     596.     586.     879. <
      3908    1   4  42   5     103.    1119.     932. <
      3909    1  -4  42  -5      96.     666.     932. <
      3910    2   5 -43  -3    9725.   11457.     900. o
      3910    1  -3  43   5    9725.   11457.     900. o
      3911    2  -5 -43   3   10123.    7434.    1549. o
      3911    1   3  43  -5   10123.    7434.    1549. o
      3912    2   5 -43  -1    8698.   12256.    1431. o
      3912    1  -1  43   5    8698.   12256.    1431. o
      3913    2  -5 -43   1    8492.    8500.    1945. o
      3913    1   1  43  -5    8492.    8500.    1945. o
      3914    2   5 -43   1    8643.   10684.    1515. o
      3914    1   1  43   5    8643.   10684.    1515. o
      3915    2  -5 -43  -1    8548.    7540.    1068. o
      3915    1  -1  43  -5    8548.    7540.    1068. o
      3916    2   5 -43   3    9848.   10525.    1438. o
      3916    1   3  43   5    9848.   10525.    1438. o
      3917    2  -5 -43  -3   10000.    8100.    1415. o
      3917    1  -3  43  -5   10000.    8100.    1415. o
      3918    1  -2  44   5     190.     293.     879. <
      3919    1   2  44  -5     165.    -320.    1838. <
      3920    1   2  44   5     165.    -453.    1332. <
      3921    1  -2  44  -5     190.    1412.    1332. <
      3922    2   5 -45  -3   15404.   15880.     930. o
      3922    1  -3  45   5   15404.   15880.     930. o
      3923    2  -5 -45   3   15607.   16413.    2290. o
      3923    1   3  45  -5   15607.   16413.    2290. o
      3924    2   5 -45  -1   16107.   15187.    1415. o
      3924    1  -1  45   5   16107.   15187.    1415. o
      3925    2  -5 -45   1   15713.   14441.    2054. o
      3925    1   1  45  -5   15713.   14441.    2054. o
      3926    2   5 -45   1   16010.   18838.    1215. o
      3926    1   1  45   5   16010.   18838.    1215. o
      3927    2  -5 -45  -1   15809.   11217.    1529. o
      3927    1  -1  45  -5   15809.   11217.    1529. o
      3928    2   5 -45   3   15343.    9725.    1504. o
      3928    1   3  45   5   15343.    9725.    1504. o
      3929    2  -5 -45  -3   15667.   13082.    1525. o
      3929    1  -3  45  -5   15667.   13082.    1525. o
      3930    1  -2  46   5      99.     187.     693. <
      3931    1   2  46  -5     126.     853.    1785. <
      3932    1   2  46   5     126.    1812.    1012. <
      3933    1  -2  46  -5      99.    -400.    1385. <
      3934    2   5 -47  -1     307.     586.    1119. <
      3934    1  -1  47   5     307.     586.    1119. <
      3935    2  -5 -47   1     229.      27.    1572. <
      3935    1   1  47  -5     229.      27.    1572. <
      3936    2   5 -47   1     317.    -533.    1039. <
      3936    1   1  47   5     317.    -533.    1039. <
      3937    2  -5 -47  -1     219.     586.     986. <
      3937    1  -1  47  -5     219.     586.     986. <
      3938    2   6   0  -8    8347.    6581.    1016. o
      3938    1  -8   0   6    8347.    6581.    1016. o
      3939    2  -6   0   8    8277.    8606.    1385. o
      3939    1   8   0  -6    8277.    8606.    1385. o
      3940    2   6   0  -6  119423.  148330.    1158. o
      3940    1  -6   0   6  119423.  148330.    1158. o
      3941    2  -6   0   6  119489.  129279.    1680. o
      3941    1   6   0  -6  119489.  129279.    1680. o
      3942    2   6   0  -4   45110.   51397.    1014. o
      3942    1  -4   0   6   45110.   51397.    1014. o
      3943    2  -6   0   4   43566.   48067.    1399. o
      3943    1   4   0  -6   43566.   48067.    1399. o
      3944    2   6   0  -2  340018.  349789.    1255. o
      3944    1  -2   0   6  340018.  349789.    1255. o
      3945    2   6   0   0   83148.   83504.    1219. o
      3945    1   0   0   6   83148.   83504.    1219. o
      3946    2   6   0   2  340004.  345392.    4882. o
      3946    1   2   0   6  340004.  345392.    4882. o
      3947    2  -6   0  -2  342398.  371504.    2302. o
      3947    1  -2   0  -6  342398.  371504.    2302. o
      3948    2   6   0   4   43680.   47614.    2109. o
      3948    1   4   0   6   43680.   47614.    2109. o
      3949    2  -6   0  -4   44996.   46148.    1590. o
      3949    1  -4   0  -6   44996.   46148.    1590. o
      3950    2   6   0   6  119654.  110948.    2152. o
      3950    1   6   0   6  119654.  110948.    2152. o
      3951    2  -6   0  -6  119259.  122938.    2917. o
      3951    1  -6   0  -6  119259.  122938.    2917. o
      3952    2   6   0   8    7670.    8926.    1624. o
      3952    1   8   0   6    7670.    8926.    1624. o
      3953    2  -6   0  -8    8953.    5542.    2640. o
      3953    1  -8   0  -6    8953.    5542.    2640. o
      3954    1  -7   1   6    1884.     266.     853. <
      3955    1   7   1  -6    1843.     213.     773. <
      3956    1  -5   1   6    2157.     266.     560. <
      3957    1   5   1  -6    2198.     666.     587. <
      3958    1  -3   1   6    2083.    1492.     773. <
      3959    1  -1   1   6    4880.    4263.     481. o
      3960    1   1   1   6    4891.    3171.     934. o
      3961    1   3   1   6    2117.    1918.    1386. <
      3962    1  -3   1  -6    2083.     613.     853. <
      3963    1   5   1   6    2198.    1359.     880. <
      3964    1  -5   1  -6    2157.     746.    1226. <
      3965    1   7   1   6    1843.       0.     906. <
      3966    1  -7   1  -6    1884.      53.    1359. <
      3967    2   6  -2  -8    1144.     -27.     799. <
      3967    1  -8   2   6    1144.     -27.     799. <
      3968    2  -6  -2   8    1178.     906.     666. <
      3968    1   8   2  -6    1178.     906.     666. <
      3969    2   6  -2  -6     910.    8260.     785. o
      3969    1  -6   2   6     910.    8260.     785. o
      3970    2  -6  -2   6     901.    8313.     785. o
      3970    1   6   2  -6     901.    8313.     785. o
      3971    2   6  -2  -4   15287.   16786.     602. o
      3971    1  -4   2   6   15287.   16786.     602. o
      3972    2  -6  -2   4   14900.   15880.     901. o
      3972    1   4   2  -6   14900.   15880.     901. o
      3973    2   6  -2  -2    7297.    8313.     529. o
      3973    1  -2   2   6    7297.    8313.     529. o
      3974    2   6  -2   0   39150.   40100.     760. o
      3974    1   0   2   6   39150.   40100.     760. o
      3975    2   6  -2   2    7287.    8500.    1944. o
      3975    1   2   2   6    7287.    8500.    1944. o
      3976    2  -6  -2  -2    7855.    5968.    1016. o
      3976    1  -2   2  -6    7855.    5968.    1016. o
      3977    2   6  -2   4   15324.   16972.    1354. o
      3977    1   4   2   6   15324.   16972.    1354. o
      3978    2  -6  -2  -4   14863.   14042.    1042. o
      3978    1  -4   2  -6   14863.   14042.    1042. o
      3979    2   6  -2   6     880.    1226.    1066. <
      3979    1   6   2   6     880.    1226.    1066. <
      3980    2  -6  -2  -6     932.    2425.    1225. <
      3980    1  -6   2  -6     932.    2425.    1225. <
      3981    2   6  -2   8    1189.    1545.    1092. <
      3981    1   8   2   6    1189.    1545.    1092. <
      3982    2  -6  -2  -8    1133.    1545.    1279. <
      3982    1  -8   2  -6    1133.    1545.    1279. <
      3983    1  -7   3   6     980.    -240.     613. <
      3984    1   7   3  -6     980.     879.     746. <
      3985    1  -5   3   6     973.     107.     560. <
      3986    1   5   3  -6     935.    -400.     826. <
      3987    1  -3   3   6    1465.    1226.     453. o
      3988    1   3   3  -6    1547.    -133.    1306. <
      3989    1  -1   3   6    1521.    5649.     632. o
      3990    1   1   3   6    1634.    2345.     905. o
      3991    1  -1   3  -6    1521.    2958.    1225. o
      3992    1   3   3   6    1547.     853.    1359. <
      3993    1  -3   3  -6    1465.    1679.     986. <
      3994    1   5   3   6     935.    1226.     932. <
      3995    1  -5   3  -6     973.       0.    1252. <
      3996    1   7   3   6     980.     213.     959. <
      3997    1  -7   3  -6     980.     853.    1599. <
      3998    2   6  -4  -8    1393.    1066.     799. <
      3998    1  -8   4   6    1393.    1066.     799. <
      3999    2  -6  -4   8    1426.    1039.     826. <
      3999    1   8   4  -6    1426.    1039.     826. <
      4000    2   6  -4  -6   47838.   53129.     793. o
      4000    1  -6   4   6   47838.   53129.     793. o
      4001    2  -6  -4   6   47610.   52756.     912. o
      4001    1   6   4  -6   47610.   52756.     912. o
      4002    2   6  -4  -4    1525.    1332.     666. <
      4002    1  -4   4   6    1525.    1332.     666. <
      4003    2  -6  -4   4    1693.    1012.     587. <
      4003    1   4   4  -6    1693.    1012.     587. <
      4004    2   6  -4  -2  133682.  144306.     417. o
      4004    1  -2   4   6  133682.  144306.     417. o
      4005    2   6  -4   0    1944.    3597.     584. o
      4005    1   0   4   6    1944.    3597.     584. o
      4006    2   6  -4   2  133222.  133888.    2602. o
      4006    1   2   4   6  133222.  133888.    2602. o
      4007    2  -6  -4  -2  133791.  133542.    1631. o
      4007    1  -2   4  -6  133791.  133542.    1631. o
      4008    2   6  -4   4    2414.     453.    1093. <
      4008    1   4   4   6    2414.     453.    1093. <
      4009    2  -6  -4  -4     805.     533.     933. <
      4009    1  -4   4  -6     805.     533.     933. <
      4010    2   6  -4   6   47044.   47267.    1197. o
      4010    1   6   4   6   47044.   47267.    1197. o
      4011    2  -6  -4  -6   48404.   48120.    1388. o
      4011    1  -6   4  -6   48404.   48120.    1388. o
      4012    2   6  -4   8    1583.    1918.     932. o
      4012    1   8   4   6    1583.    1918.     932. o
      4013    2  -6  -4  -8    1236.    1012.    1572. <
      4013    1  -8   4  -6    1236.    1012.    1572. <
      4014    1  -7   5   6    1401.     773.     746. <
      4015    1   7   5  -6    1367.    -320.     746. <
      4016    1  -5   5   6    4584.     160.     696. <
      4017    1   5   5  -6    4826.     -80.     696. <
      4018    1  -3   5   6    2341.    2158.     533. o
      4019    1   3   5  -6    2177.    1279.     906. <
      4020    1  -1   5   6    3584.    6475.     552. o
      4021    1   1   5   6    3767.    4157.     825. o
      4022    1  -1   5  -6    3584.    5569.    1357. o
      4023    1   3   5   6    2177.    2744.    1359. o
      4024    1  -3   5  -6    2341.    1199.     720. <
      4025    1   5   5   6    4826.     266.     908. <
      4026    1  -5   5  -6    4584.     160.    1041. <
      4027    1   7   5   6    1367.     -27.    1093. <
      4028    1  -7   5  -6    1401.     506.    1386. <
      4029    2   6  -6  -8    1932.     933.     826. <
      4029    1  -8   6   6    1932.     933.     826. <
      4030    2  -6  -6   8    1860.    2265.     799. o
      4030    1   8   6  -6    1860.    2265.     799. o
      4031    2   6  -6  -6   20757.   26938.     859. o
      4031    1  -6   6   6   20757.   26938.     859. o
      4032    2  -6  -6   6   20924.   21902.     765. o
      4032    1   6   6  -6   20924.   21902.     765. o
      4033    2   6  -6  -4    7940.    8580.     610. o
      4033    1  -4   6   6    7940.    8580.     610. o
      4034    2  -6  -6   4    7290.   10631.    1246. o
      4034    1   4   6  -6    7290.   10631.    1246. o
      4035    2   6  -6  -2   54441.   51877.     843. o
      4035    1  -2   6   6   54441.   51877.     843. o
      4036    2   6  -6   0   15657.   20543.     684. o
      4036    1   0   6   6   15657.   20543.     684. o
      4037    2   6  -6   2   54529.   53795.    2057. o
      4037    1   2   6   6   54529.   53795.    2057. o
      4038    2  -6  -6  -2   56180.   47854.    1899. o
      4038    1  -2   6  -6   56180.   47854.    1899. o
      4039    2   6  -6   4    7306.    8793.    1089. o
      4039    1   4   6   6    7306.    8793.    1089. o
      4040    2  -6  -6  -4    7924.    5595.     990. o
      4040    1  -4   6  -6    7924.    5595.     990. o
      4041    2   6  -6   6   21340.   22381.    1060. o
      4041    1   6   6   6   21340.   22381.    1060. o
      4042    2  -6  -6  -6   20341.   21342.    1435. o
      4042    1  -6   6  -6   20341.   21342.    1435. o
      4043    2   6  -6   8    1603.    1439.    1066. <
      4043    1   8   6   6    1603.    1439.    1066. <
      4044    2  -6  -6  -8    2188.     400.    1546. <
      4044    1  -8   6  -6    2188.     400.    1546. <
      4045    1  -7   7   6      93.      53.     853. <
      4046    1   7   7  -6      91.     533.     773. <
      4047    1  -5   7   6     525.     933.     586. <
      4048    1   5   7  -6     543.    2345.     852. o
      4049    1  -3   7   6    1989.    3837.     557. o
      4050    1   3   7  -6    1941.    3943.     904. o
      4051    1  -1   7   6    5045.   10258.     593. o
      4052    1   1   7   6    4877.    6022.    1037. o
      4053    1  -1   7  -6    5045.    5515.    1118. o
      4054    1   3   7   6    1941.    3757.    1384. o
      4055    1  -3   7  -6    1989.    3357.     931. o
      4056    1   5   7   6     543.    1306.     906. <
      4057    1  -5   7  -6     525.     213.    1199. <
      4058    1   7   7   6      91.     666.     932. <
      4059    1  -7   7  -6      93.     533.    1359. <
      4060    2   6  -8  -8    5675.    4743.     854. o
      4060    1  -8   8   6    5675.    4743.     854. o
      4061    2  -6  -8   8    5852.    6261.     985. o
      4061    1   8   8  -6    5852.    6261.     985. o
      4062    2   6  -8  -6   55295.   63281.     750. o
      4062    1  -6   8   6   55295.   63281.     750. o
      4063    2  -6  -8   6   55561.   56913.     992. o
      4063    1   6   8  -6   55561.   56913.     992. o
      4064    2   6  -8  -4   24158.   27870.     682. o
      4064    1  -4   8   6   24158.   27870.     682. o
      4065    2  -6  -8   4   22888.   24966.    1322. o
      4065    1   4   8  -6   22888.   24966.    1322. o
      4066    2   6  -8  -2  156098.  161066.     845. o
      4066    1  -2   8   6  156098.  161066.     845. o
      4067    2   6  -8   0   55152.   55074.     801. o
      4067    1   0   8   6   55152.   55074.     801. o
      4068    2   6  -8   2  156026.  158242.    1978. o
      4068    1   2   8   6  156026.  158242.    1978. o
      4069    2  -6  -8  -2  159821.  124989.    2725. o
      4069    1  -2   8  -6  159821.  124989.    2725. o
      4070    2   6  -8   4   23963.   24513.    1410. o
      4070    1   4   8   6   23963.   24513.    1410. o
      4071    2  -6  -8  -4   23083.   23154.    1279. o
      4071    1  -4   8  -6   23083.   23154.    1279. o
      4072    2   6  -8   6   56220.   57152.    1268. o
      4072    1   6   8   6   56220.   57152.    1268. o
      4073    2  -6  -8  -6   54635.   52303.    1698. o
      4073    1  -6   8  -6   54635.   52303.    1698. o
      4074    2   6  -8   8    5582.    4636.     987. o
      4074    1   8   8   6    5582.    4636.     987. o
      4075    2  -6  -8  -8    5944.    5702.    1572. o
      4075    1  -8   8  -6    5944.    5702.    1572. o
      4076    1  -7   9   6    1594.    1172.     613. <
      4077    1   7   9  -6    1654.     266.     746. <
      4078    1  -5   9   6    3423.    2025.     694. o
      4079    1   5   9  -6    3286.    1465.     827. <
      4080    1  -3   9   6    2221.    1066.     587. <
      4081    1   3   9  -6    2283.     693.    1199. <
      4082    1  -1   9   6    2832.    4050.     638. o
      4083    1   1   9   6    2833.    5222.    1036. o
      4084    1  -1   9  -6    2832.    6182.    1462. o
      4085    1   3   9   6    2283.    1519.    1199. <
      4086    1  -3   9  -6    2221.    1306.     986. <
      4087    1   5   9   6    3286.    1785.    1173. <
      4088    1  -5   9  -6    3423.    3171.    1306. o
      4089    1   7   9   6    1654.    -133.     906. <
      4090    1  -7   9  -6    1594.    2984.    1625. <
      4091    2   6 -10  -6   17730.   23021.     844. o
      4091    1  -6  10   6   17730.   23021.     844. o
      4092    2  -6 -10   6   17608.   23634.     950. o
      4092    1   6  10  -6   17608.   23634.     950. o
      4093    2   6 -10  -4    1008.     906.     480. <
      4093    1  -4  10   6    1008.     906.     480. <
      4094    2  -6 -10   4    1101.    -453.     906. <
      4094    1   4  10  -6    1101.    -453.     906. <
      4095    2   6 -10  -2   60809.   65039.     673. o
      4095    1  -2  10   6   60809.   65039.     673. o
      4096    2  -6 -10   2   61250.   44150.    1517. o
      4096    1   2  10  -6   61250.   44150.    1517. o
      4097    2   6 -10   0    2063.    4077.     770. o
      4097    1   0  10   6    2063.    4077.     770. o
      4098    2   6 -10   2   60782.   64240.    1425. o
      4098    1   2  10   6   60782.   64240.    1425. o
      4099    2  -6 -10  -2   61278.   53209.    1672. o
      4099    1  -2  10  -6   61278.   53209.    1672. o
      4100    2   6 -10   4    1379.     693.    1279. <
      4100    1   4  10   6    1379.     693.    1279. <
      4101    2  -6 -10  -4     730.    1252.     932. <
      4101    1  -4  10  -6     730.    1252.     932. <
      4102    2   6 -10   6   17305.   19824.    1054. o
      4102    1   6  10   6   17305.   19824.    1054. o
      4103    2  -6 -10  -6   18032.   19744.    1620. o
      4103    1  -6  10  -6   18032.   19744.    1620. o
      4104    1  -7  11   6     297.    1599.     612. o
      4105    1   7  11  -6     280.     453.     773. <
      4106    1  -5  11   6     343.     240.     480. <
      4107    1   5  11  -6     368.    1918.    1252. <
      4108    1  -3  11   6     132.    1599.     612. o
      4109    1   3  11  -6     150.     879.     826. <
      4110    1  -1  11   6    1908.    3863.     583. o
      4111    1   1  11   6    1951.    1759.     959. <
      4112    1  -1  11  -6    1908.    3704.    1544. o
      4113    1   3  11   6     150.    1572.    1172. <
      4114    1  -3  11  -6     132.   -1039.    1119. <
      4115    1   5  11   6     368.    1146.     959. <
      4116    1  -5  11  -6     343.     293.    1066. <
      4117    1   7  11   6     280.     826.     746. <
      4118    1  -7  11  -6     297.    1759.    1279. <
      4119    2   6 -12  -6    8750.   15081.     799. o
      4119    1  -6  12   6    8750.   15081.     799. o
      4120    2  -6 -12   6    8639.   14068.    1103. o
      4120    1   6  12  -6    8639.   14068.    1103. o
      4121    2   6 -12  -4    1389.    1705.     693. o
      4121    1  -4  12   6    1389.    1705.     693. o
      4122    2  -6 -12   4    1389.     453.    1199. <
      4122    1   4  12  -6    1389.     453.    1199. <
      4123    2   6 -12  -2   23972.   26964.     745. o
      4123    1  -2  12   6   23972.   26964.     745. o
      4124    2  -6 -12   2   24380.   25898.    1485. o
      4124    1   2  12  -6   24380.   25898.    1485. o
      4125    2   6 -12   0    1889.    4370.     850. o
      4125    1   0  12   6    1889.    4370.     850. o
      4126    2   6 -12   2   23707.   24753.    1274. o
      4126    1   2  12   6   23707.   24753.    1274. o
      4127    2  -6 -12  -2   24645.   21289.    1717. o
      4127    1  -2  12  -6   24645.   21289.    1717. o
      4128    2   6 -12   4    1680.    1492.    1066. <
      4128    1   4  12   6    1680.    1492.    1066. <
      4129    2  -6 -12  -4    1098.     187.     959. <
      4129    1  -4  12  -6    1098.     187.     959. <
      4130    2   6 -12   6    8365.   11937.    1190. o
      4130    1   6  12   6    8365.   11937.    1190. o
      4131    2  -6 -12  -6    9024.   11697.    1514. o
      4131    1  -6  12  -6    9024.   11697.    1514. o
      4132    1  -7  13   6    1396.    1572.     799. <
      4133    1   7  13  -6    1358.     586.     826. <
      4134    1  -5  13   6    1551.    1412.     560. o
      4135    1   5  13  -6    1518.    1039.     986. <
      4136    1  -3  13   6    4460.    4769.     692. o
      4137    1   3  13  -6    4551.    4903.    1252. o
      4138    1  -1  13   6    3109.    9992.     617. o
      4139    1   1  13   6    2992.    6928.    1114. o
      4140    1  -1  13  -6    3109.    6102.    1596. o
      4141    1   3  13   6    4551.    4849.     959. o
      4142    1  -3  13  -6    4460.    4396.    1759. o
      4143    1   5  13   6    1518.    -213.    1199. <
      4144    1  -5  13  -6    1551.     773.    1119. <
      4145    1   7  13   6    1358.    1359.    1039. <
      4146    1  -7  13  -6    1396.    1599.    1252. <
      4147    2   6 -14  -6   57804.   57765.     773. o
      4147    1  -6  14   6   57804.   57765.     773. o
      4148    2  -6 -14   6   57789.   63494.    1344. o
      4148    1   6  14  -6   57789.   63494.    1344. o
      4149    2   6 -14  -4   38517.   42098.     749. o
      4149    1  -4  14   6   38517.   42098.     749. o
      4150    2  -6 -14   4   37476.   45136.    1488. o
      4150    1   4  14  -6   37476.   45136.    1488. o
      4151    2   6 -14  -2  162528.  179584.    3563. o
      4151    1  -2  14   6  162528.  179584.    3563. o
      4152    2  -6 -14   2  164175.   88566.    2705. o
      4152    1   2  14  -6  164175.   88566.    2705. o
      4153    2   6 -14   0   81472.   84650.    1082. o
      4153    1   0  14   6   81472.   84650.    1082. o
      4154    2  -6 -14   0   77566.   75537.    1940. o
      4154    1   0  14  -6   77566.   75537.    1940. o
      4155    2   6 -14   2  162361.  185712.    1671. o
      4155    1   2  14   6  162361.  185712.    1671. o
      4156    2  -6 -14  -2  164342.  153419.    2781. o
      4156    1  -2  14  -6  164342.  153419.    2781. o
      4157    2   6 -14   4   37817.   42418.    1376. o
      4157    1   4  14   6   37817.   42418.    1376. o
      4158    2  -6 -14  -4   38176.   37515.    1470. o
      4158    1  -4  14  -6   38176.   37515.    1470. o
      4159    2   6 -14   6   57752.   58778.    1347. o
      4159    1   6  14   6   57752.   58778.    1347. o
      4160    2  -6 -14  -6   57842.   54408.    1735. o
      4160    1  -6  14  -6   57842.   54408.    1735. o
      4161    1  -7  15   6     129.    1172.     799. <
      4162    1   7  15  -6     167.     933.    1439. <
      4163    1  -5  15   6     280.     400.     560. <
      4164    1   5  15  -6     261.   -1092.     932. <
      4165    1  -3  15   6     427.     240.     613. <
      4166    1   3  15  -6     367.    1599.    1252. <
      4167    1  -1  15   6     849.    1679.     612. o
      4168    1   1  15   6    1045.    2664.    1038. o
      4169    1  -1  15  -6     849.    1972.    1518. <
      4170    1   3  15   6     367.    1652.     879. <
      4171    1  -3  15  -6     427.    2185.    1278. <
      4172    1   5  15   6     261.    -426.     959. <
      4173    1  -5  15  -6     280.    -266.    1146. <
      4174    1   7  15   6     167.     213.     959. <
      4175    1  -7  15  -6     129.    2158.    1092. <
      4176    2   6 -16  -6   19994.   23127.     693. o
      4176    1  -6  16   6   19994.   23127.     693. o
      4177    2  -6 -16   6   19940.   22648.    1186. o
      4177    1   6  16  -6   19940.   22648.    1186. o
      4178    2   6 -16  -4   36359.   38501.     744. o
      4178    1  -4  16   6   36359.   38501.     744. o
      4179    2  -6 -16   4   36156.   35224.    1206. o
      4179    1   4  16  -6   36156.   35224.    1206. o
      4180    2   6 -16  -2   53649.   59151.     717. o
      4180    1  -2  16   6   53649.   59151.     717. o
      4181    2  -6 -16   2   55090.   61922.    1585. o
      4181    1   2  16  -6   55090.   61922.    1585. o
      4182    2   6 -16   0   70281.   69889.    1099. o
      4182    1   0  16   6   70281.   69889.    1099. o
      4183    2  -6 -16   0   66484.   56246.    1647. o
      4183    1   0  16  -6   66484.   56246.    1647. o
      4184    2   6 -16   2   54197.   59097.    1468. o
      4184    1   2  16   6   54197.   59097.    1468. o
      4185    2  -6 -16  -2   54542.   46894.    1686. o
      4185    1  -2  16  -6   54542.   46894.    1686. o
      4186    2   6 -16   4   36848.   33918.    1117. o
      4186    1   4  16   6   36848.   33918.    1117. o
      4187    2  -6 -16  -4   35666.   36210.    2449. o
      4187    1  -4  16  -6   35666.   36210.    2449. o
      4188    2   6 -16   6   19806.   18358.    1285. o
      4188    1   6  16   6   19806.   18358.    1285. o
      4189    2  -6 -16  -6   20128.   17798.    1341. o
      4189    1  -6  16  -6   20128.   17798.    1341. o
      4190    1  -7  17   6     664.    2078.     719. o
      4191    1   7  17  -6     645.    1119.    1439. <
      4192    1  -5  17   6    1378.    1012.     586. <
      4193    1   5  17  -6    1392.    1918.    1279. <
      4194    1  -3  17   6      99.    1732.     585. o
      4195    1   3  17  -6      99.    1545.    1252. <
      4196    1  -1  17   6    2907.    1998.     561. o
      4197    1   1  17   6    2920.    1465.     987. <
      4198    1  -1  17  -6    2907.     933.    1093. <
      4199    1   3  17   6      99.     506.     719. <
      4200    1  -3  17  -6      99.    1199.    1305. <
      4201    1   5  17   6    1392.    1439.    1092. <
      4202    1  -5  17  -6    1378.     853.    1039. <
      4203    1   7  17   6     646.     533.     986. <
      4204    1  -7  17  -6     664.    2078.    1412. <
      4205    2   6 -18  -6   13451.   18971.     711. o
      4205    1  -6  18   6   13451.   18971.     711. o
      4206    2  -6 -18   6   13386.   20783.    1549. o
      4206    1   6  18  -6   13386.   20783.    1549. o
      4207    2   6 -18  -4    1801.    1386.     640. o
      4207    1  -4  18   6    1801.    1386.     640. o
      4208    2  -6 -18   4    1752.     986.    1306. <
      4208    1   4  18  -6    1752.     986.    1306. <
      4209    2   6 -18  -2   31727.   26351.     773. o
      4209    1  -2  18   6   31727.   26351.     773. o
      4210    2  -6 -18   2   31296.   20463.    1180. o
      4210    1   2  18  -6   31296.   20463.    1180. o
      4211    2   6 -18   0    1061.    1599.     826. <
      4211    1   0  18   6    1061.    1599.     826. <
      4212    2  -6 -18   0     383.    2052.    1092. <
      4212    1   0  18  -6     383.    2052.    1092. <
      4213    2   6 -18   2   31072.   32027.    1273. o
      4213    1   2  18   6   31072.   32027.    1273. o
      4214    2  -6 -18  -2   31951.   23900.    1504. o
      4214    1  -2  18  -6   31951.   23900.    1504. o
      4215    2   6 -18   4    2224.    1332.    1013. <
      4215    1   4  18   6    2224.    1332.    1013. <
      4216    2  -6 -18  -4    1329.    -240.    1998. <
      4216    1  -4  18  -6    1329.    -240.    1998. <
      4217    2   6 -18   6   13224.   16893.    1348. o
      4217    1   6  18   6   13224.   16893.    1348. o
      4218    2  -6 -18  -6   13612.   13589.    1306. o
      4218    1  -6  18  -6   13612.   13589.    1306. o
      4219    1  -7  19   6     288.     160.     666. <
      4220    1   7  19  -6     295.     746.    1519. <
      4221    1  -5  19   6     790.     853.     586. <
      4222    1   5  19  -6     779.    -320.    1332. <
      4223    1  -3  19   6    1899.    3144.     638. o
      4224    1   3  19  -6    1939.    2105.     906. o
      4225    1  -1  19   6    2689.    5542.     688. o
      4226    1   1  19   6    2677.    2824.    1119. o
      4227    1  -1  19  -6    2689.    1599.    1652. <
      4228    1   3  19   6    1939.    2585.     879. o
      4229    1  -3  19  -6    1899.    4556.    1917. o
      4230    1   5  19   6     779.     400.     879. <
      4231    1  -5  19  -6     790.    3464.    1944. <
      4232    1   7  19   6     295.     533.     853. <
      4233    1  -7  19  -6     288.    1119.    1279. <
      4234    2   6 -20  -6     336.    4343.     634. o
      4234    1  -6  20   6     336.    4343.     634. o
      4235    2  -6 -20   6     348.    3331.    1037. o
      4235    1   6  20  -6     348.    3331.    1037. o
      4236    2   6 -20  -4     881.    1332.     666. <
      4236    1  -4  20   6     881.    1332.     666. <
      4237    2  -6 -20   4     875.    2585.    1438. <
      4237    1   4  20  -6     875.    2585.    1438. <
      4238    2   6 -20  -2    1609.    3011.     558. o
      4238    1  -2  20   6    1609.    3011.     558. o
      4239    2  -6 -20   2    2068.    5435.    1276. o
      4239    1   2  20  -6    2068.    5435.    1276. o
      4240    2   6 -20   0    3783.    2691.     800. o
      4240    1   0  20   6    3783.    2691.     800. o
      4241    2  -6 -20   0    3461.    1865.    1573. <
      4241    1   0  20  -6    3461.    1865.    1573. <
      4242    2   6 -20   2    1669.     853.     959. <
      4242    1   2  20   6    1669.     853.     959. <
      4243    2  -6 -20  -2    2009.     959.    1839. <
      4243    1  -2  20  -6    2009.     959.    1839. <
      4244    2   6 -20   4     831.      27.    1092. <
      4244    1   4  20   6     831.      27.    1092. <
      4245    2  -6 -20  -4     925.     560.    1838. <
      4245    1  -4  20  -6     925.     560.    1838. <
      4246    2   6 -20   6     377.     906.    1119. <
      4246    1   6  20   6     377.     906.    1119. <
      4247    2  -6 -20  -6     307.      80.    1359. <
      4247    1  -6  20  -6     307.      80.    1359. <
      4248    1  -7  21   6      14.     799.     719. <
      4249    1   7  21  -6       9.    -293.    1172. <
      4250    1  -5  21   6    1471.    1119.     640. <
      4251    1   5  21  -6    1613.    2984.    1385. o
      4252    1  -3  21   6     634.    2824.     611. o
      4253    1   3  21  -6     500.    2558.    1305. <
      4254    1  -1  21   6    3770.    4396.     798. o
      4255    1   1  21   6    4061.    3437.    1200. o
      4256    1  -1  21  -6    3770.    3544.    1279. o
      4257    1   3  21   6     500.    3384.    1331. o
      4258    1  -3  21  -6     634.    3970.    1944. o
      4259    1   5  21   6    1613.     -80.    1386. <
      4260    1  -5  21  -6    1471.     400.    1732. <
      4261    1   7  21   6       9.    2505.    1278. <
      4262    1  -7  21  -6      14.    1279.    1119. <
      4263    2   6 -22  -6   30650.   29575.     836. o
      4263    1  -6  22   6   30650.   29575.     836. o
      4264    2  -6 -22   6   30684.   32000.    1351. o
      4264    1   6  22  -6   30684.   32000.    1351. o
      4265    2   6 -22  -4   32359.   33838.     755. o
      4265    1  -4  22   6   32359.   33838.     755. o
      4266    2  -6 -22   4   32314.   37462.    1540. o
      4266    1   4  22  -6   32314.   37462.    1540. o
      4267    2   6 -22  -2   71883.   79294.     719. o
      4267    1  -2  22   6   71883.   79294.     719. o
      4268    2   6 -22   0   61611.   65679.    1223. o
      4268    1   0  22   6   61611.   65679.    1223. o
      4269    2  -6 -22   0   59757.   44123.    1772. o
      4269    1   0  22  -6   59757.   44123.    1772. o
      4270    2   6 -22   2   72893.   69329.    1744. o
      4270    1   2  22   6   72893.   69329.    1744. o
      4271    2  -6 -22  -2   74173.   59177.    2528. o
      4271    1  -2  22  -6   74173.   59177.    2528. o
      4272    2   6 -22   4   33324.   32906.    1521. o
      4272    1   4  22   6   33324.   32906.    1521. o
      4273    2  -6 -22  -4   31350.   28696.    1559. o
      4273    1  -4  22  -6   31350.   28696.    1559. o
      4274    2   6 -22   6   30770.   26538.    1829. o
      4274    1   6  22   6   30770.   26538.    1829. o
      4275    2  -6 -22  -6   30564.   26644.    2066. o
      4275    1  -6  22  -6   30564.   26644.    2066. o
      4276    1  -5  23   6    1256.    1892.     612. o
      4277    1   5  23  -6    1279.    1838.    1439. <
      4278    1  -3  23   6     304.    1226.     559. o
      4279    1   3  23  -6     256.    1972.    1278. <
      4280    1  -1  23   6    1489.    2638.     585. o
      4281    1   1  23  -6    1498.    2158.    1598. <
      4282    1   1  23   6    1498.    5142.    1223. o
      4283    1  -1  23  -6    1489.    3730.    1811. o
      4284    1   3  23   6     256.    1172.    1758. <
      4285    1  -3  23  -6     304.     400.    1838. <
      4286    1   5  23   6    1279.    2371.    1385. <
      4287    1  -5  23  -6    1256.    3517.    1251. o
      4288    2   6 -24  -6     817.    3624.     770. o
      4288    1  -6  24   6     817.    3624.     770. o
      4289    2  -6 -24   6     779.    1599.    1225. <
      4289    1   6  24  -6     779.    1599.    1225. <
      4290    2   6 -24  -4    2861.    1998.     667. o
      4290    1  -4  24   6    2861.    1998.     667. o
      4291    2  -6 -24   4    2784.    3810.    1332. o
      4291    1   4  24  -6    2784.    3810.    1332. o
      4292    2   6 -24  -2    2765.    3624.     612. o
      4292    1  -2  24   6    2765.    3624.     612. o
      4293    2   6 -24   0    7236.    8207.     877. o
      4293    1   0  24   6    7236.    8207.     877. o
      4294    2  -6 -24   0    6868.    2984.    1655. <
      4294    1   0  24  -6    6868.    2984.    1655. <
      4295    2   6 -24   2    2608.    2558.    1705. <
      4295    1   2  24   6    2608.    2558.    1705. <
      4296    2  -6 -24  -2    3641.    1865.    1413. <
      4296    1  -2  24  -6    3641.    1865.    1413. <
      4297    2   6 -24   4    2825.    2052.    1626. <
      4297    1   4  24   6    2825.    2052.    1626. <
      4298    2  -6 -24  -4    2819.    2238.    1226. <
      4298    1  -4  24  -6    2819.    2238.    1226. <
      4299    2   6 -24   6     686.    1998.    1518. <
      4299    1   6  24   6     686.    1998.    1518. <
      4300    2  -6 -24  -6     910.    1039.    1252. <
      4300    1  -6  24  -6     910.    1039.    1252. <
      4301    1  -5  25   6     284.    -346.     719. <
      4302    1   5  25  -6     332.    2132.    1385. <
      4303    1  -3  25   6     842.     666.     506. <
      4304    1   3  25  -6     784.    1386.    1385. <
      4305    1  -1  25   6     737.     560.     773. <
      4306    1   1  25  -6     717.     213.    1599. <
      4307    1   1  25   6     717.     906.    1012. <
      4308    1  -1  25  -6     737.    -213.    1785. <
      4309    1   3  25   6     784.    3890.    1624. o
      4310    1  -3  25  -6     842.     -80.    1226. <
      4311    1   5  25   6     332.    2025.    1732. <
      4312    1  -5  25  -6     284.    -533.    1679. <
      4313    2   6 -26  -6    8459.   10391.     793. o
      4313    1  -6  26   6    8459.   10391.     793. o
      4314    2  -6 -26   6    8379.   12843.    1724. o
      4314    1   6  26  -6    8379.   12843.    1724. o
      4315    2   6 -26  -4   10759.   11430.     690. o
      4315    1  -4  26   6   10759.   11430.     690. o
      4316    2  -6 -26   4   10823.   12390.    1542. o
      4316    1   4  26  -6   10823.   12390.    1542. o
      4317    2   6 -26  -2   28452.   28216.     828. o
      4317    1  -2  26   6   28452.   28216.     828. o
      4318    2   6 -26   0   17509.   17985.    1090. o
      4318    1   0  26   6   17509.   17985.    1090. o
      4319    2  -6 -26   0   17375.   11697.    1427. o
      4319    1   0  26  -6   17375.   11697.    1427. o
      4320    2   6 -26   2   28301.   26431.    1952. o
      4320    1   2  26   6   28301.   26431.    1952. o
      4321    2  -6 -26  -2   28876.   25339.    1958. o
      4321    1  -2  26  -6   28876.   25339.    1958. o
      4322    2   6 -26   4   10680.    7087.    1710. o
      4322    1   4  26   6   10680.    7087.    1710. o
      4323    2  -6 -26  -4   10902.   10551.    1786. o
      4323    1  -4  26  -6   10902.   10551.    1786. o
      4324    2   6 -26   6    8181.    7674.    1599. o
      4324    1   6  26   6    8181.    7674.    1599. o
      4325    2  -6 -26  -6    8658.    4210.    1816. o
      4325    1  -6  26  -6    8658.    4210.    1816. o
      4326    1  -5  27   6     713.    1306.     746. <
      4327    1   5  27  -6     720.    1332.    1092. <
      4328    1  -3  27   6    1087.    2158.     692. o
      4329    1   3  27  -6    1030.    3517.    1518. o
      4330    1  -1  27   6    2920.    3251.     746. o
      4331    1   1  27  -6    3039.    4423.    1944. o
      4332    1   1  27   6    3039.    2425.    1226. <
      4333    1  -1  27  -6    2920.     480.    1786. <
      4334    1   3  27   6    1030.    1732.    1145. <
      4335    1  -3  27  -6    1087.    1599.    1225. <
      4336    1   5  27   6     720.    1306.    1678. <
      4337    1  -5  27  -6     713.    -400.    1146. <
      4338    2   6 -28  -6    6710.    6182.     774. o
      4338    1  -6  28   6    6710.    6182.     774. o
      4339    2  -6 -28   6    6696.    6395.    1706. o
      4339    1   6  28  -6    6696.    6395.    1706. o
      4340    2   6 -28  -4    8906.   12363.     786. o
      4340    1  -4  28   6    8906.   12363.     786. o
      4341    2  -6 -28   4    8666.   13109.    1644. o
      4341    1   4  28  -6    8666.   13109.    1644. o
      4342    2   6 -28  -2   20334.   21369.     765. o
      4342    1  -2  28   6   20334.   21369.     765. o
      4343    2   6 -28   0   23941.   30694.    1238. o
      4343    1   0  28   6   23941.   30694.    1238. o
      4344    2  -6 -28   0   23118.   22248.    1496. o
      4344    1   0  28  -6   23118.   22248.    1496. o
      4345    2   6 -28   2   20136.   18198.    1738. o
      4345    1   2  28   6   20136.   18198.    1738. o
      4346    2  -6 -28  -2   20662.   13242.    1776. o
      4346    1  -2  28  -6   20662.   13242.    1776. o
      4347    2   6 -28   4    8828.    9858.    1277. o
      4347    1   4  28   6    8828.    9858.    1277. o
      4348    2  -6 -28  -4    8744.   12283.    1672. o
      4348    1  -4  28  -6    8744.   12283.    1672. o
      4349    2   6 -28   6    6661.    1012.    1389. <
      4349    1   6  28   6    6661.    1012.    1389. <
      4350    2  -6 -28  -6    6746.    5942.    1227. o
      4350    1  -6  28  -6    6746.    5942.    1227. o
      4351    1  -5  29   6     959.     480.     666. <
      4352    1   5  29  -6     962.    2132.    1572. <
      4353    1  -3  29   6     917.     719.     613. <
      4354    1   3  29  -6     810.    1092.    1385. <
      4355    1  -1  29   6     533.     453.     639. <
      4356    1   1  29  -6     663.     959.    1545. <
      4357    1   1  29   6     663.    1066.    2345. <
      4358    1  -1  29  -6     533.    2611.    1731. <
      4359    1   3  29   6     810.    -453.    1092. <
      4360    1  -3  29  -6     917.     719.    1599. <
      4361    1   5  29   6     962.    1252.    1119. <
      4362    1  -5  29  -6     959.    -373.    1066. <
      4363    2   6 -30  -6   17503.   13935.     869. o
      4363    1  -6  30   6   17503.   13935.     869. o
      4364    2  -6 -30   6   17454.   13589.    1423. o
      4364    1   6  30  -6   17454.   13589.    1423. o
      4365    2   6 -30  -4   32663.   35864.     817. o
      4365    1  -4  30   6   32663.   35864.     817. o
      4366    2  -6 -30   4   32033.   31627.    1388. o
      4366    1   4  30  -6   32033.   31627.    1388. o
      4367    2   6 -30  -2   44681.   37302.     868. o
      4367    1  -2  30   6   44681.   37302.     868. o
      4368    2  -6 -30   2   44768.   36849.    1573. o
      4368    1   2  30  -6   44768.   36849.    1573. o
      4369    2   6 -30   0   62732.   59577.    1500. o
      4369    1   0  30   6   62732.   59577.    1500. o
      4370    2  -6 -30   0   61327.   49585.    1851. o
      4370    1   0  30  -6   61327.   49585.    1851. o
      4371    2   6 -30   2   44158.   49585.    1909. o
      4371    1   2  30   6   44158.   49585.    1909. o
      4372    2  -6 -30  -2   45292.   33199.    1954. o
      4372    1  -2  30  -6   45292.   33199.    1954. o
      4373    2   6 -30   4   32740.   34904.    1747. o
      4373    1   4  30   6   32740.   34904.    1747. o
      4374    2  -6 -30  -4   31956.   30508.    1421. o
      4374    1  -4  30  -6   31956.   30508.    1421. o
      4375    2   6 -30   6   17333.    8047.    1432. o
      4375    1   6  30   6   17333.    8047.    1432. o
      4376    2  -6 -30  -6   17624.   14281.    1687. o
      4376    1  -6  30  -6   17624.   14281.    1687. o
      4377    1  -5  31   6     624.     107.     719. <
      4378    1   5  31  -6     665.    3757.    1624. o
      4379    1  -3  31   6     145.     293.     719. <
      4380    1   3  31  -6     101.    -320.     799. <
      4381    1  -1  31   6     615.     533.     799. <
      4382    1   1  31  -6     793.    1146.    1625. <
      4383    1   1  31   6     793.    -160.    1785. <
      4384    1  -1  31  -6     615.   -1066.    1652. <
      4385    1   3  31   6     101.    -133.    1572. <
      4386    1  -3  31  -6     145.    2318.    1571. <
      4387    1   5  31   6     665.    -320.    1146. <
      4388    1  -5  31  -6     624.     853.    1119. <
      4389    2   6 -32  -4     523.    1625.     746. o
      4389    1  -4  32   6     523.    1625.     746. o
      4390    2  -6 -32   4     399.    2025.    1652. <
      4390    1   4  32  -6     399.    2025.    1652. <
      4391    2   6 -32  -2    1250.    2744.     772. o
      4391    1  -2  32   6    1250.    2744.     772. o
      4392    2  -6 -32   2    1294.    2238.    1652. <
      4392    1   2  32  -6    1294.    2238.    1652. <
      4393    2   6 -32   0    2639.    1279.    1093. <
      4393    1   0  32   6    2639.    1279.    1093. <
      4394    2  -6 -32   0    2168.    3863.    1838. o
      4394    1   0  32  -6    2168.    3863.    1838. o
      4395    2   6 -32   2    1262.    -586.    1652. <
      4395    1   2  32   6    1262.    -586.    1652. <
      4396    2  -6 -32  -2    1282.   -1599.    1172. <
      4396    1  -2  32  -6    1282.   -1599.    1172. <
      4397    2   6 -32   4     553.    3704.    1464. o
      4397    1   4  32   6     553.    3704.    1464. o
      4398    2  -6 -32  -4     369.     826.    1492. <
      4398    1  -4  32  -6     369.     826.    1492. <
      4399    1  -5  33   6     272.     773.     559. <
      4400    1   5  33  -6     270.    1146.    1252. <
      4401    1  -3  33   6     697.     613.     693. <
      4402    1  -1  33   6     675.    1519.    1012. <
      4403    1   1  33  -6     686.     320.    1732. <
      4404    1   1  33   6     686.    1412.    1758. <
      4405    1  -1  33  -6     675.   -1066.    1652. <
      4406    1   3  33   6     712.    -187.    1465. <
      4407    1  -3  33  -6     697.    -799.    1012. <
      4408    1   5  33   6     270.    -107.    1572. <
      4409    1  -5  33  -6     272.    -853.    1572. <
      4410    2   6 -34  -4    1082.    1412.     639. o
      4410    1  -4  34   6    1082.    1412.     639. o
      4411    2  -6 -34   4    1042.    2158.    1625. <
      4411    1   4  34  -6    1042.    2158.    1625. <
      4412    2   6 -34  -2    2376.    3331.     798. o
      4412    1  -2  34   6    2376.    3331.     798. o
      4413    2  -6 -34   2    2427.    3224.    1678. <
      4413    1   2  34  -6    2427.    3224.    1678. <
      4414    2   6 -34   0     729.    1199.     986. <
      4414    1   0  34   6     729.    1199.     986. <
      4415    2  -6 -34   0     563.     693.    1279. <
      4415    1   0  34  -6     563.     693.    1279. <
      4416    2   6 -34   2    2481.    2798.    1572. <
      4416    1   2  34   6    2481.    2798.    1572. <
      4417    2  -6 -34  -2    2323.     826.    1066. <
      4417    1  -2  34  -6    2323.     826.    1066. <
      4418    2   6 -34   4    1092.    -187.    1039. <
      4418    1   4  34   6    1092.    -187.    1039. <
      4419    2  -6 -34  -4    1032.    1918.    1065. <
      4419    1  -4  34  -6    1032.    1918.    1065. <
      4420    1  -5  35   6     595.     453.     773. <
      4421    1   5  35  -6     619.     266.    1759. <
      4422    1  -3  35   6     661.    1012.     666. <
      4423    1  -1  35   6    1131.     533.     879. <
      4424    1   1  35  -6    1229.    -320.    1759. <
      4425    1   1  35   6    1229.    -533.    1199. <
      4426    1  -1  35  -6    1131.    -719.    1119. <
      4427    1   3  35   6     618.    -240.    1012. <
      4428    1  -3  35  -6     661.    -373.    1492. <
      4429    1   5  35   6     619.    -400.    1092. <
      4430    1  -5  35  -6     595.    -906.    1119. <
      4431    2   6 -36  -4   10558.   12949.     790. o
      4431    1  -4  36   6   10558.   12949.     790. o
      4432    2  -6 -36   4   10550.   12496.    1915. o
      4432    1   4  36  -6   10550.   12496.    1915. o
      4433    2   6 -36  -2   12996.   10738.     834. o
      4433    1  -2  36   6   12996.   10738.     834. o
      4434    2  -6 -36   2   13264.   10525.    1816. o
      4434    1   2  36  -6   13264.   10525.    1816. o
      4435    2   6 -36   0   18664.   24646.    1441. o
      4435    1   0  36   6   18664.   24646.    1441. o
      4436    2  -6 -36   0   18275.   17026.    1363. o
      4436    1   0  36  -6   18275.   17026.    1363. o
      4437    2   6 -36   2   12918.   11457.    1548. o
      4437    1   2  36   6   12918.   11457.    1548. o
      4438    2  -6 -36  -2   13342.    7087.    1449. o
      4438    1  -2  36  -6   13342.    7087.    1449. o
      4439    2   6 -36   4   10697.   12709.    1568. o
      4439    1   4  36   6   10697.   12709.    1568. o
      4440    2  -6 -36  -4   10411.   11324.    1544. o
      4440    1  -4  36  -6   10411.   11324.    1544. o
      4441    1  -3  37   6     282.     213.     746. <
      4442    1  -1  37   6    2559.     586.    1040. <
      4443    1   1  37  -6    2673.     266.    1839. <
      4444    1   1  37   6    2673.    1519.    1146. <
      4445    1  -1  37  -6    2559.    -586.    1066. <
      4446    1   3  37   6     226.     533.    1012. <
      4447    1  -3  37  -6     282.    1066.    1012. <
      4448    2   6 -38  -4    6129.    6848.     905. o
      4448    1  -4  38   6    6129.    6848.     905. o
      4449    2  -6 -38   4    6170.    4716.    1387. o
      4449    1   4  38  -6    6170.    4716.    1387. o
      4450    2   6 -38  -2    7395.    9379.     847. o
      4450    1  -2  38   6    7395.    9379.     847. o
      4451    2  -6 -38   2    7799.    8073.    1758. o
      4451    1   2  38  -6    7799.    8073.    1758. o
      4452    2   6 -38   0   12042.   11990.    1519. o
      4452    1   0  38   6   12042.   11990.    1519. o
      4453    2  -6 -38   0   12071.    9459.    1258. o
      4453    1   0  38  -6   12071.    9459.    1258. o
      4454    2   6 -38   2    7381.    6874.    1519. o
      4454    1   2  38   6    7381.    6874.    1519. o
      4455    2  -6 -38  -2    7813.    5329.    1070. o
      4455    1  -2  38  -6    7813.    5329.    1070. o
      4456    2   6 -38   4    6229.    4103.    1068. o
      4456    1   4  38   6    6229.    4103.    1068. o
      4457    2  -6 -38  -4    6071.    4290.    1494. o
      4457    1  -4  38  -6    6071.    4290.    1494. o
      4458    1  -3  39   6     718.     719.     773. <
      4459    1   3  39  -6     662.    -480.    1172. <
      4460    1  -1  39   6     237.    1386.    1252. <
      4461    1   1  39  -6     260.     453.    1679. <
      4462    1   1  39   6     260.     373.    1545. <
      4463    1  -1  39  -6     237.     373.    1412. <
      4464    1   3  39   6     662.     133.    1013. <
      4465    1  -3  39  -6     718.   -1226.    1412. <
      4466    2   6 -40  -2    5650.    4343.     775. o
      4466    1  -2  40   6    5650.    4343.     775. o
      4467    2  -6 -40   2    6011.    3730.    1867. <
      4467    1   2  40  -6    6011.    3730.    1867. <
      4468    2   6 -40   0    4142.    5729.    1704. o
      4468    1   0  40   6    4142.    5729.    1704. o
      4469    2  -6 -40   0    4153.    5489.    1518. o
      4469    1   0  40  -6    4153.    5489.    1518. o
      4470    2   6 -40   2    5778.    1172.    1494. <
      4470    1   2  40   6    5778.    1172.    1494. <
      4471    2  -6 -40  -2    5883.    2904.    1414. o
      4471    1  -2  40  -6    5883.    2904.    1414. o
      4472    1  -3  41   6     331.     853.     746. <
      4473    1   3  41  -6     343.     533.    1812. <
      4474    1  -1  41   6     636.    1199.     826. <
      4475    1   1  41  -6     595.     586.    1679. <
      4476    1   1  41   6     595.     187.    1492. <
      4477    1  -1  41  -6     636.    1226.     986. <
      4478    1   3  41   6     343.    1545.    1039. <
      4479    1  -3  41  -6     331.     240.     906. <
      4480    2   6 -42  -2     243.    1092.     852. <
      4480    1  -2  42   6     243.    1092.     852. <
      4481    2  -6 -42   2     302.    1146.    1918. <
      4481    1   2  42  -6     302.    1146.    1918. <
      4482    2   6 -42   0    1099.   -1252.    1172. <
      4482    1   0  42   6    1099.   -1252.    1172. <
      4483    2  -6 -42   0    1054.   -1172.    1465. <
      4483    1   0  42  -6    1054.   -1172.    1465. <
      4484    2   6 -42   2     235.    -293.     986. <
      4484    1   2  42   6     235.    -293.     986. <
      4485    2  -6 -42  -2     309.     586.    1012. <
      4485    1  -2  42  -6     309.     586.    1012. <
      4486    1  -1  43   6    1118.    1705.     879. <
      4487    1   1  43  -6    1166.     746.    2052. <
      4488    1   1  43   6    1166.     933.    1119. <
      4489    1  -1  43  -6    1118.    -346.    1359. <
      4490    2   6 -44   0   19998.   23714.    1746. o
      4490    1   0  44   6   19998.   23714.    1746. o
      4491    2  -6 -44   0   19966.   13029.    1327. o
      4491    1   0  44  -6   19966.   13029.    1327. o
      4492    2   7  -1  -7    7846.    7967.     826. o
      4492    1  -7   1   7    7846.    7967.     826. o
      4493    2  -7  -1   7    7838.    6874.     722. o
      4493    1   7   1  -7    7838.    6874.     722. o
      4494    2   7  -1  -5   52229.   51664.     888. o
      4494    1  -5   1   7   52229.   51664.     888. o
      4495    2  -7  -1   5   52964.   42365.    1133. o
      4495    1   5   1  -7   52964.   42365.    1133. o
      4496    2   7  -1  -3   34136.   35730.     671. o
      4496    1  -3   1   7   34136.   35730.     671. o
      4497    2   7  -1  -1   89430.   86248.     911. o
      4497    1  -1   1   7   89430.   86248.     911. o
      4498    2   7  -1   1   93244.   87314.    1239. o
      4498    1   1   1   7   93244.   87314.    1239. o
      4499    2   7  -1   3   32816.   35038.    1720. o
      4499    1   3   1   7   32816.   35038.    1720. o
      4500    2  -7  -1  -3   33526.   28483.     950. o
      4500    1  -3   1  -7   33526.   28483.     950. o
      4501    2   7  -1   5   53379.   45509.    1558. o
      4501    1   5   1   7   53379.   45509.    1558. o
      4502    2  -7  -1  -5   51815.   39913.    1384. o
      4502    1  -5   1  -7   51815.   39913.    1384. o
      4503    2   7  -1   7    7819.    8899.    1197. o
      4503    1   7   1   7    7819.    8899.    1197. o
      4504    2  -7  -1  -7    7865.    7514.    1333. o
      4504    1  -7   1  -7    7865.    7514.    1333. o
      4505    1  -6   2   7    1691.     240.     746. <
      4506    1   6   2  -7    1714.    2078.     906. o
      4507    1  -4   2   7    1486.    1519.     666. o
      4508    1  -2   2   7     875.     826.     560. <
      4509    1   2   2   7     921.    -560.    1918. <
      4510    1  -2   2  -7     875.     133.    1332. <
      4511    1   4   2   7    1478.     426.     959. <
      4512    1  -4   2  -7    1486.     586.     693. <
      4513    1   6   2   7    1714.    -107.    1146. <
      4514    1  -6   2  -7    1691.    1838.    1279. <
      4515    2   7  -3  -7    3081.    2558.     800. o
      4515    1  -7   3   7    3081.    2558.     800. o
      4516    2  -7  -3   7    2944.    3890.     958. o
      4516    1   7   3  -7    2944.    3890.     958. o
      4517    2   7  -3  -5   12063.   13962.     791. o
      4517    1  -5   3   7   12063.   13962.     791. o
      4518    2  -7  -3   5   12253.   13456.    1356. o
      4518    1   5   3  -7   12253.   13456.    1356. o
      4519    2   7  -3  -3    8755.   10125.     580. o
      4519    1  -3   3   7    8755.   10125.     580. o
      4520    2   7  -3  -1    8249.    5888.     620. o
      4520    1  -1   3   7    8249.    5888.     620. o
      4521    2   7  -3   1    8276.    8526.     879. o
      4521    1   1   3   7    8276.    8526.     879. o
      4522    2   7  -3   3    8211.   10978.    1647. o
      4522    1   3   3   7    8211.   10978.    1647. o
      4523    2  -7  -3  -3    9286.    7860.     883. o
      4523    1  -3   3  -7    9286.    7860.     883. o
      4524    2   7  -3   5   12780.    9858.    1127. o
      4524    1   5   3   7   12780.    9858.    1127. o
      4525    2  -7  -3  -5   11535.    8580.     941. o
      4525    1  -5   3  -7   11535.    8580.     941. o
      4526    2   7  -3   7    2603.    1492.    1013. <
      4526    1   7   3   7    2603.    1492.    1013. <
      4527    2  -7  -3  -7    3423.    1679.    1280. <
      4527    1  -7   3  -7    3423.    1679.    1280. <
      4528    1  -6   4   7     417.    1412.     692. o
      4529    1   6   4  -7     440.    1039.     746. <
      4530    1  -4   4   7     960.    1465.     613. o
      4531    1   4   4  -7     916.    -187.     906. <
      4532    1  -2   4   7    1491.     107.     507. <
      4533    1   2   4   7    1413.     293.    1252. <
      4534    1  -2   4  -7    1491.    1492.     959. <
      4535    1   4   4   7     916.     826.    1199. <
      4536    1  -4   4  -7     960.     719.     693. <
      4537    1   6   4   7     440.     320.    1172. <
      4538    1  -6   4  -7     417.    1759.    1279. <
      4539    2   7  -5  -7     581.     933.     773. <
      4539    1  -7   5   7     581.     933.     773. <
      4540    2  -7  -5   7     553.     -53.     693. <
      4540    1   7   5  -7     553.     -53.     693. <
      4541    2   7  -5  -5    3244.    5995.     634. o
      4541    1  -5   5   7    3244.    5995.     634. o
      4542    2  -7  -5   5    3271.    7034.     953. o
      4542    1   5   5  -7    3271.    7034.     953. o
      4543    2   7  -5  -3    6574.    8047.     554. o
      4543    1  -3   5   7    6574.    8047.     554. o
      4544    2   7  -5  -1    7067.    6288.     588. o
      4544    1  -1   5   7    7067.    6288.     588. o
      4545    2   7  -5   1    6887.    8446.     822. o
      4545    1   1   5   7    6887.    8446.     822. o
      4546    2   7  -5   3    6388.    6928.    1811. o
      4546    1   3   5   7    6388.    6928.    1811. o
      4547    2  -7  -5  -3    6870.    6768.     986. o
      4547    1  -3   5  -7    6870.    6768.     986. o
      4548    2   7  -5   5    3402.    3357.    1279. o
      4548    1   5   5   7    3402.    3357.    1279. o
      4549    2  -7  -5  -5    3113.    3837.    1225. o
      4549    1  -5   5  -7    3113.    3837.    1225. o
      4550    2   7  -5   7     483.     107.    1092. <
      4550    1   7   5   7     483.     107.    1092. <
      4551    2  -7  -5  -7     650.    1306.    1225. <
      4551    1  -7   5  -7     650.    1306.    1225. <
      4552    1  -6   6   7    1004.    1332.     879. <
      4553    1   6   6  -7     982.    1146.     959. <
      4554    1  -4   6   7    1484.     799.     560. <
      4555    1   4   6  -7    1452.     293.     826. <
      4556    1  -2   6   7    1189.    2238.     585. o
      4557    1   2   6   7    1159.    2078.    1172. <
      4558    1  -2   6  -7    1189.    1759.    1385. <
      4559    1   4   6   7    1452.     666.    1093. <
      4560    1  -4   6  -7    1484.     879.     879. <
      4561    1   6   6   7     982.    1865.    1199. <
      4562    1  -6   6  -7    1004.    1439.    1119. <
      4563    2   7  -7  -7   10265.    7460.     860. o
      4563    1  -7   7   7   10265.    7460.     860. o
      4564    2  -7  -7   7   10105.    4530.     890. o
      4564    1   7   7  -7   10105.    4530.     890. o
      4565    2   7  -7  -5   57795.   55500.     816. o
      4565    1  -5   7   7   57795.   55500.     816. o
      4566    2  -7  -7   5   58922.   67943.    1583. o
      4566    1   5   7  -7   58922.   67943.    1583. o
      4567    2   7  -7  -3   38186.   39993.     748. o
      4567    1  -3   7   7   38186.   39993.     748. o
      4568    2   7  -7  -1   97733.   90964.    1009. o
      4568    1  -1   7   7   97733.   90964.    1009. o
      4569    2   7  -7   1  103267.   96959.    1526. o
      4569    1   1   7   7  103267.   96959.    1526. o
      4570    2   7  -7   3   34935.   39940.    1973. o
      4570    1   3   7   7   34935.   39940.    1973. o
      4571    2  -7  -7  -3   38328.   31494.    1429. o
      4571    1  -3   7  -7   38328.   31494.    1429. o
      4572    2   7  -7   5   58512.   53342.    1671. o
      4572    1   5   7   7   58512.   53342.    1671. o
      4573    2  -7  -7  -5   58205.   50092.    1592. o
      4573    1  -5   7  -7   58205.   50092.    1592. o
      4574    2   7  -7   7    9710.    9406.    1093. o
      4574    1   7   7   7    9710.    9406.    1093. o
      4575    2  -7  -7  -7   10661.   10232.    1520. o
      4575    1  -7   7  -7   10661.   10232.    1520. o
      4576    1  -6   8   7    1164.     213.     746. <
      4577    1   6   8  -7    1266.     480.     879. <
      4578    1  -4   8   7    1254.    3624.     663. o
      4579    1   4   8  -7    1122.    2052.    1279. <
      4580    1  -2   8   7     875.     560.     506. <
      4581    1   2   8   7     967.    1252.    1252. <
      4582    1  -2   8  -7     875.    -187.    1013. <
      4583    1   4   8   7    1122.    3037.    1225. o
      4584    1  -4   8  -7    1254.    2984.     851. o
      4585    1   6   8   7    1266.    2052.    1172. <
      4586    1  -6   8  -7    1164.    -133.    1332. <
      4587    2   7  -9  -7     706.    1439.     799. <
      4587    1  -7   9   7     706.    1439.     799. <
      4588    2  -7  -9   7     716.     826.     986. <
      4588    1   7   9  -7     716.     826.     986. <
      4589    2   7  -9  -5    9489.   11937.     655. o
      4589    1  -5   9   7    9489.   11937.     655. o
      4590    2  -7  -9   5    9692.   12070.    1434. o
      4590    1   5   9  -7    9692.   12070.    1434. o
      4591    2   7  -9  -3    2894.    4023.     504. o
      4591    1  -3   9   7    2894.    4023.     504. o
      4592    2   7  -9  -1   12065.   11804.     667. o
      4592    1  -1   9   7   12065.   11804.     667. o
      4593    2   7  -9   1   12910.   12390.    1094. o
      4593    1   1   9   7   12910.   12390.    1094. o
      4594    2  -7  -9  -1   11865.   13242.    1409. o
      4594    1  -1   9  -7   11865.   13242.    1409. o
      4595    2   7  -9   3    2311.    2691.     852. o
      4595    1   3   9   7    2311.    2691.     852. o
      4596    2  -7  -9  -3    2824.    2664.    1119. o
      4596    1  -3   9  -7    2824.    2664.    1119. o
      4597    2   7  -9   5    9336.    9086.    1386. o
      4597    1   5   9   7    9336.    9086.    1386. o
      4598    2  -7  -9  -5    9845.    5462.    1100. o
      4598    1  -5   9  -7    9845.    5462.    1100. o
      4599    2   7  -9   7     741.    2664.    1171. o
      4599    1   7   9   7     741.    2664.    1171. o
      4600    2  -7  -9  -7     682.    2958.    1491. <
      4600    1  -7   9  -7     682.    2958.    1491. <
      4601    1  -6  10   7      49.     693.     586. <
      4602    1   6  10  -7      41.    1412.    1359. <
      4603    1  -4  10   7     384.    2025.     585. o
      4604    1   4  10  -7     414.    2691.     985. o
      4605    1  -2  10   7      26.    1012.     559. <
      4606    1   2  10   7      47.     719.    1119. <
      4607    1  -2  10  -7      26.    1332.    1039. <
      4608    1   4  10   7     414.    1625.    1439. <
      4609    1  -4  10  -7     384.    1119.    1119. <
      4610    1   6  10   7      41.     107.     986. <
      4611    1  -6  10  -7      49.    -693.    1092. <
      4612    2   7 -11  -7    6669.    2718.     831. o
      4612    1  -7  11   7    6669.    2718.     831. o
      4613    2  -7 -11   7    6481.    3917.    1095. o
      4613    1   7  11  -7    6481.    3917.    1095. o
      4614    2   7 -11  -5   18510.   20783.     730. o
      4614    1  -5  11   7   18510.   20783.     730. o
      4615    2  -7 -11   5   18700.   20063.    1139. o
      4615    1   5  11  -7   18700.   20063.    1139. o
      4616    2   7 -11  -3   27008.   25712.     706. o
      4616    1  -3  11   7   27008.   25712.     706. o
      4617    2  -7 -11   3   26812.   18065.    1162. o
      4617    1   3  11  -7   26812.   18065.    1162. o
      4618    2   7 -11  -1   31323.   29629.     660. o
      4618    1  -1  11   7   31323.   29629.     660. o
      4619    2   7 -11   1   31306.   33785.    1127. o
      4619    1   1  11   7   31306.   33785.    1127. o
      4620    2  -7 -11  -1   31007.   28936.    1239. o
      4620    1  -1  11  -7   31007.   28936.    1239. o
      4621    2   7 -11   3   26052.   26591.    1062. o
      4621    1   3  11   7   26052.   26591.    1062. o
      4622    2  -7 -11  -3   27768.   23953.    1852. o
      4622    1  -3  11  -7   27768.   23953.    1852. o
      4623    2   7 -11   5   19314.   18731.    1201. o
      4623    1   5  11   7   19314.   18731.    1201. o
      4624    2  -7 -11  -5   17895.   16520.    1363. o
      4624    1  -5  11  -7   17895.   16520.    1363. o
      4625    2   7 -11   7    6013.    3704.     989. o
      4625    1   7  11   7    6013.    3704.     989. o
      4626    2  -7 -11  -7    7137.    4263.    1255. o
      4626    1  -7  11  -7    7137.    4263.    1255. o
      4627    1  -6  12   7    1848.     639.     693. <
      4628    1   6  12  -7    1783.    1386.    1386. <
      4629    1  -4  12   7    1098.     426.     560. <
      4630    1   4  12  -7    1172.    -533.     986. <
      4631    1  -2  12   7     802.    1146.     533. o
      4632    1   2  12   7     735.    1918.    1145. <
      4633    1  -2  12  -7     802.    1705.    1092. <
      4634    1   4  12   7    1172.     986.    1492. <
      4635    1  -4  12  -7    1098.     293.    1199. <
      4636    1   6  12   7    1783.    1465.    1226. <
      4637    1  -6  12  -7    1848.     719.    1093. <
      4638    2   7 -13  -5    8828.   12390.     650. o
      4638    1  -5  13   7    8828.   12390.     650. o
      4639    2  -7 -13   5    9101.   10471.    1089. o
      4639    1   5  13  -7    9101.   10471.    1089. o
      4640    2   7 -13  -3    7508.    7061.     588. o
      4640    1  -3  13   7    7508.    7061.     588. o
      4641    2  -7 -13   3    6904.    8873.    1302. o
      4641    1   3  13  -7    6904.    8873.    1302. o
      4642    2   7 -13  -1   28055.   23154.     763. o
      4642    1  -1  13   7   28055.   23154.     763. o
      4643    2   7 -13   1   28884.   25872.    1138. o
      4643    1   1  13   7   28884.   25872.    1138. o
      4644    2  -7 -13  -1   28048.   20916.    1287. o
      4644    1  -1  13  -7   28048.   20916.    1287. o
      4645    2   7 -13   3    7151.    7194.    1039. o
      4645    1   3  13   7    7151.    7194.    1039. o
      4646    2  -7 -13  -3    7260.    4023.    1176. o
      4646    1  -3  13  -7    7260.    4023.    1176. o
      4647    2   7 -13   5    8977.    7514.    1308. o
      4647    1   5  13   7    8977.    7514.    1308. o
      4648    2  -7 -13  -5    8952.    7087.    1043. o
      4648    1  -5  13  -7    8952.    7087.    1043. o
      4649    1  -6  14   7     606.    1252.     692. <
      4650    1   6  14  -7     584.      27.    1386. <
      4651    1  -4  14   7     747.    1172.     693. <
      4652    1   4  14  -7     800.    -133.    1412. <
      4653    1  -2  14   7    1263.     826.     586. <
      4654    1   2  14   7    1175.     853.    1066. <
      4655    1  -2  14  -7    1263.   -1172.    1439. <
      4656    1   4  14   7     800.    -320.    1066. <
      4657    1  -4  14  -7     747.   -3091.    1837. <
      4658    1   6  14   7     584.     879.    1092. <
      4659    1  -6  14  -7     606.     213.    1412. <
      4660    2   7 -15  -5   53753.   53022.     838. o
      4660    1  -5  15   7   53753.   53022.     838. o
      4661    2  -7 -15   5   54316.   53316.    1369. o
      4661    1   5  15  -7   54316.   53316.    1369. o
      4662    2   7 -15  -3   51103.   44176.     807. o
      4662    1  -3  15   7   51103.   44176.     807. o
      4663    2  -7 -15   3   48150.   48706.    1648. o
      4663    1   3  15  -7   48150.   48706.    1648. o
      4664    2   7 -15  -1   95865.  100476.     854. o
      4664    1  -1  15   7   95865.  100476.     854. o
      4665    2   7 -15   1   99423.  101809.    1531. o
      4665    1   1  15   7   99423.  101809.    1531. o
      4666    2  -7 -15  -1   96324.   85209.    2101. o
      4666    1  -1  15  -7   96324.   85209.    2101. o
      4667    2   7 -15   3   48931.   48200.    1286. o
      4667    1   3  15   7   48931.   48200.    1286. o
      4668    2  -7 -15  -3   50322.   39674.    2162. o
      4668    1  -3  15  -7   50322.   39674.    2162. o
      4669    2   7 -15   5   54720.   50305.    1636. o
      4669    1   5  15   7   54720.   50305.    1636. o
      4670    2  -7 -15  -5   53350.   43457.    1447. o
      4670    1  -5  15  -7   53350.   43457.    1447. o
      4671    1  -6  16   7     394.    1705.     772. o
      4672    1   6  16  -7     452.    2291.    1465. <
      4673    1  -4  16   7     257.     506.     586. <
      4674    1   4  16  -7     217.    1279.    1385. <
      4675    1  -2  16   7    2108.    2211.     559. o
      4676    1   2  16   7    2083.     879.    1013. <
      4677    1  -2  16  -7    2108.     986.    1519. <
      4678    1   4  16   7     217.    -133.     986. <
      4679    1  -4  16  -7     257.     666.    1332. <
      4680    1   6  16   7     452.    1838.    1225. <
      4681    1  -6  16  -7     394.    -506.    1359. <
      4682    2   7 -17  -5    3224.    3677.     612. o
      4682    1  -5  17   7    3224.    3677.     612. o
      4683    2  -7 -17   5    3212.    3304.    1039. o
      4683    1   5  17  -7    3212.    3304.    1039. o
      4684    2   7 -17  -3     185.    1146.     559. o
      4684    1  -3  17   7     185.    1146.     559. o
      4685    2  -7 -17   3     136.    1705.    1358. <
      4685    1   3  17  -7     136.    1705.    1358. <
      4686    2   7 -17  -1    4370.    3997.     640. o
      4686    1  -1  17   7    4370.    3997.     640. o
      4687    2   7 -17   1    4343.    5222.    1011. o
      4687    1   1  17   7    4343.    5222.    1011. o
      4688    2  -7 -17  -1    4324.    2718.    1546. <
      4688    1  -1  17  -7    4324.    2718.    1546. <
      4689    2   7 -17   3     184.     533.     826. <
      4689    1   3  17   7     184.     533.     826. <
      4690    2  -7 -17  -3     138.    1465.    1225. <
      4690    1  -3  17  -7     138.    1465.    1225. <
      4691    2   7 -17   5    3361.    1785.    1093. <
      4691    1   5  17   7    3361.    1785.    1093. <
      4692    2  -7 -17  -5    3074.    1012.    1599. <
      4692    1  -5  17  -7    3074.    1012.    1599. <
      4693    1  -6  18   7     878.     107.     720. <
      4694    1   6  18  -7     860.   -1119.    1412. <
      4695    1  -4  18   7     451.     879.     506. <
      4696    1   4  18  -7     468.    1279.    1385. <
      4697    1  -2  18   7     758.     453.     586. <
      4698    1   2  18   7     728.    1199.    1092. <
      4699    1  -2  18  -7     758.    -666.    1066. <
      4700    1   4  18   7     468.     346.     773. <
      4701    1  -4  18  -7     451.    -400.    1332. <
      4702    1   6  18   7     860.    1572.    1332. <
      4703    1  -6  18  -7     878.     933.    2318. <
      4704    2   7 -19  -5    6863.    7940.     636. o
      4704    1  -5  19   7    6863.    7940.     636. o
      4705    2  -7 -19   5    7014.    5595.    1095. o
      4705    1   5  19  -7    7014.    5595.    1095. o
      4706    2   7 -19  -3   10162.    9246.     564. o
      4706    1  -3  19   7   10162.    9246.     564. o
      4707    2  -7 -19   3   10838.   11537.    1464. o
      4707    1   3  19  -7   10838.   11537.    1464. o
      4708    2   7 -19  -1    7248.    7061.     693. o
      4708    1  -1  19   7    7248.    7061.     693. o
      4709    2   7 -19   1    7189.    9112.    1062. o
      4709    1   1  19   7    7189.    9112.    1062. o
      4710    2  -7 -19  -1    7008.    4236.    1176. o
      4710    1  -1  19  -7    7008.    4236.    1176. o
      4711    2   7 -19   3   10333.    9192.    1042. o
      4711    1   3  19   7   10333.    9192.    1042. o
      4712    2  -7 -19  -3   10667.    6581.    1843. o
      4712    1  -3  19  -7   10667.    6581.    1843. o
      4713    2   7 -19   5    7373.    5808.    1121. o
      4713    1   5  19   7    7373.    5808.    1121. o
      4714    2  -7 -19  -5    6504.    5569.    1653. o
      4714    1  -5  19  -7    6504.    5569.    1653. o
      4715    1  -6  20   7     174.    1652.     639. o
      4716    1   6  20  -7     175.     240.    1465. <
      4717    1  -4  20   7     904.     187.     586. <
      4718    1   4  20  -7     906.    2105.    1412. <
      4719    1  -2  20   7      52.    1865.     585. o
      4720    1   2  20   7      49.    1332.    1145. <
      4721    1  -2  20  -7      52.    1918.    1092. <
      4722    1   4  20   7     906.     320.     853. <
      4723    1  -4  20  -7     904.    2105.    1412. <
      4724    1   6  20   7     175.     400.    1012. <
      4725    1  -6  20  -7     174.     187.    2078. <
      4726    2   7 -21  -5   13864.   16866.     702. o
      4726    1  -5  21   7   13864.   16866.     702. o
      4727    2  -7 -21   5   14189.   15214.    1276. o
      4727    1   5  21  -7   14189.   15214.    1276. o
      4728    2   7 -21  -3   12341.   10072.     650. o
      4728    1  -3  21   7   12341.   10072.     650. o
      4729    2  -7 -21   3   10876.   10178.    1520. o
      4729    1   3  21  -7   10876.   10178.    1520. o
      4730    2   7 -21  -1   20976.   22381.     626. o
      4730    1  -1  21   7   20976.   22381.     626. o
      4731    2   7 -21   1   22645.   24699.    1269. o
      4731    1   1  21   7   22645.   24699.    1269. o
      4732    2  -7 -21  -1   21312.   19370.    1764. o
      4732    1  -1  21  -7   21312.   19370.    1764. o
      4733    2   7 -21   3   11084.    9032.    1044. o
      4733    1   3  21   7   11084.    9032.    1044. o
      4734    2  -7 -21  -3   12133.    7594.    1871. o
      4734    1  -3  21  -7   12133.    7594.    1871. o
      4735    2   7 -21   5   13784.   11350.    2135. o
      4735    1   5  21   7   13784.   11350.    2135. o
      4736    2  -7 -21  -5   14269.   12816.    1602. o
      4736    1  -5  21  -7   14269.   12816.    1602. o
      4737    1  -6  22   7     856.     666.     640. <
      4738    1   6  22  -7     852.     746.    1492. <
      4739    1  -4  22   7      59.    1972.     692. o
      4740    1   4  22  -7      72.    1625.    1465. <
      4741    1  -2  22   7    4902.     506.     590. <
      4742    1   2  22   7    5004.      53.     988. <
      4743    1  -2  22  -7    4902.   -1386.    1706. <
      4744    1   4  22   7      72.    -107.    1812. <
      4745    1  -4  22  -7      59.    2211.    1438. <
      4746    1   6  22   7     852.    1785.    1652. <
      4747    1  -6  22  -7     856.    -160.    1465. <
      4748    2   7 -23  -5   17729.   15241.     813. o
      4748    1  -5  23   7   17729.   15241.     813. o
      4749    2  -7 -23   5   17962.   18598.    1276. o
      4749    1   5  23  -7   17962.   18598.    1276. o
      4750    2   7 -23  -3   16614.   15187.     780. o
      4750    1  -3  23   7   16614.   15187.     780. o
      4751    2  -7 -23   3   15451.   18571.    1590. o
      4751    1   3  23  -7   15451.   18571.    1590. o
      4752    2   7 -23  -1   35548.   37622.     801. o
      4752    1  -1  23   7   35548.   37622.     801. o
      4753    2   7 -23   1   36831.   35011.    1319. o
      4753    1   1  23   7   36831.   35011.    1319. o
      4754    2  -7 -23  -1   35895.   22568.    1504. o
      4754    1  -1  23  -7   35895.   22568.    1504. o
      4755    2   7 -23   3   15809.   15987.    1891. o
      4755    1   3  23   7   15809.   15987.    1891. o
      4756    2  -7 -23  -3   16256.   13376.    2057. o
      4756    1  -3  23  -7   16256.   13376.    2057. o
      4757    2   7 -23   5   17549.   15507.    2056. o
      4757    1   5  23   7   17549.   15507.    2056. o
      4758    2  -7 -23  -5   18142.   15347.    1500. o
      4758    1  -5  23  -7   18142.   15347.    1500. o
      4759    1  -4  24   7       8.    2078.     692. o
      4760    1   4  24  -7      15.    2771.    1598. <
      4761    1  -2  24   7     143.     906.     746. <
      4762    1   2  24   7     106.     586.    1039. <
      4763    1  -2  24  -7     143.     426.    1785. <
      4764    1   4  24   7      15.    2798.    1198. o
      4765    1  -4  24  -7       8.       0.    1306. <
      4766    2   7 -25  -5    5431.    4903.     800. o
      4766    1  -5  25   7    5431.    4903.     800. o
      4767    2  -7 -25   5    5464.    5036.    1572. o
      4767    1   5  25  -7    5464.    5036.    1572. o
      4768    2   7 -25  -3   10631.   11350.     716. o
      4768    1  -3  25   7   10631.   11350.     716. o
      4769    2  -7 -25   3   10839.   13002.    1514. o
      4769    1   3  25  -7   10839.   13002.    1514. o
      4770    2   7 -25  -1    9069.    9512.     771. o
      4770    1  -1  25   7    9069.    9512.     771. o
      4771    2   7 -25   1    9001.   10311.    1223. o
      4771    1   1  25   7    9001.   10311.    1223. o
      4772    2  -7 -25  -1    9122.    6821.    1309. o
      4772    1  -1  25  -7    9122.    6821.    1309. o
      4773    2   7 -25   3   10488.    7913.    1310. o
      4773    1   3  25   7   10488.    7913.    1310. o
      4774    2  -7 -25  -3   10981.    8553.    1975. o
      4774    1  -3  25  -7   10981.    8553.    1975. o
      4775    2   7 -25   5    5738.    5409.    1865. o
      4775    1   5  25   7    5738.    5409.    1865. o
      4776    2  -7 -25  -5    5157.    3064.    1281. o
      4776    1  -5  25  -7    5157.    3064.    1281. o
      4777    1  -4  26   7     378.     320.     506. <
      4778    1   4  26  -7     346.     -80.    1545. <
      4779    1  -2  26   7     152.     480.     639. <
      4780    1   2  26   7     182.    -506.    1252. <
      4781    1  -2  26  -7     152.    1705.    1865. <
      4782    1   4  26   7     346.    -613.    1545. <
      4783    1  -4  26  -7     378.     746.    1172. <
      4784    2   7 -27  -5    1048.    1865.     559. o
      4784    1  -5  27   7    1048.    1865.     559. o
      4785    2  -7 -27   5    1029.    2638.    1678. <
      4785    1   5  27  -7    1029.    2638.    1678. <
      4786    2   7 -27  -3    1864.    1439.     533. o
      4786    1  -3  27   7    1864.    1439.     533. o
      4787    2  -7 -27   3    1868.    2052.    1572. <
      4787    1   3  27  -7    1868.    2052.    1572. <
      4788    2   7 -27  -1    1837.    1172.     746. <
      4788    1  -1  27   7    1837.    1172.     746. <
      4789    2   7 -27   1    1613.    2291.    1145. <
      4789    1   1  27   7    1613.    2291.    1145. <
      4790    2  -7 -27  -1    1830.    1519.    1732. <
      4790    1  -1  27  -7    1830.    1519.    1732. <
      4791    2   7 -27   3    1799.    1918.    1226. <
      4791    1   3  27   7    1799.    1918.    1226. <
      4792    2  -7 -27  -3    1933.    1066.    1785. <
      4792    1  -3  27  -7    1933.    1066.    1785. <
      4793    2   7 -27   5    1097.    1386.    1332. <
      4793    1   5  27   7    1097.    1386.    1332. <
      4794    2  -7 -27  -5     980.      53.    1705. <
      4794    1  -5  27  -7     980.      53.    1705. <
      4795    1  -4  28   7      45.    1012.     692. <
      4796    1   4  28  -7      68.     879.    1146. <
      4797    1  -2  28   7    1564.     346.     773. <
      4798    1   2  28  -7    1496.     453.    1625. <
      4799    1   2  28   7    1496.     719.    1226. <
      4800    1  -2  28  -7    1564.     639.    1306. <
      4801    1   4  28   7      68.     533.    1146. <
      4802    1  -4  28  -7      45.     400.    1226. <
      4803    2   7 -29  -5   19614.   14868.     773. o
      4803    1  -5  29   7   19614.   14868.     773. o
      4804    2  -7 -29   5   19961.   18438.    1471. o
      4804    1   5  29  -7   19961.   18438.    1471. o
      4805    2   7 -29  -3   26488.   26431.     853. o
      4805    1  -3  29   7   26488.   26431.     853. o
      4806    2  -7 -29   3   25338.    -213.     966. <
      4806    1   3  29  -7   25338.    -213.     966. <
      4807    2   7 -29  -1   44888.   47187.     957. o
      4807    1  -1  29   7   44888.   47187.     957. o
      4808    2   7 -29   1   46168.   44949.    1767. o
      4808    1   1  29   7   46168.   44949.    1767. o
      4809    2  -7 -29  -1   44905.   34505.    2180. o
      4809    1  -1  29  -7   44905.   34505.    2180. o
      4810    2   7 -29   3   25972.   23367.    1768. o
      4810    1   3  29   7   25972.   23367.    1768. o
      4811    2  -7 -29  -3   25853.   21129.    1801. o
      4811    1  -3  29  -7   25853.   21129.    1801. o
      4812    2   7 -29   5   19757.   15081.    1876. o
      4812    1   5  29   7   19757.   15081.    1876. o
      4813    2  -7 -29  -5   19818.   13589.    1404. o
      4813    1  -5  29  -7   19818.   13589.    1404. o
      4814    1  -4  30   7      52.     746.     613. <
      4815    1   4  30  -7      84.    1599.    1652. <
      4816    1  -2  30   7     602.    -346.     719. <
      4817    1   2  30  -7     535.       0.    1812. <
      4818    1   2  30   7     535.   -1146.    1732. <
      4819    1  -2  30  -7     602.    1759.    1705. <
      4820    1   4  30   7      84.    -586.    1572. <
      4821    1  -4  30  -7      52.    -560.    1652. <
      4822    2   7 -31  -3    5241.    3570.     669. o
      4822    1  -3  31   7    5241.    3570.     669. o
      4823    2   7 -31  -1   10005.   10072.     879. o
      4823    1  -1  31   7   10005.   10072.     879. o
      4824    2   7 -31   1   10314.   11963.    1462. o
      4824    1   1  31   7   10314.   11963.    1462. o
      4825    2  -7 -31  -1   10054.    8260.    1921. o
      4825    1  -1  31  -7   10054.    8260.    1921. o
      4826    2   7 -31   3    5193.    5249.    1652. o
      4826    1   3  31   7    5193.    5249.    1652. o
      4827    2  -7 -31  -3    4930.    4103.    1599. o
      4827    1  -3  31  -7    4930.    4103.    1599. o
      4828    1  -4  32   7     147.     666.     719. <
      4829    1   4  32  -7     156.     266.    1199. <
      4830    1  -2  32   7     423.   -1039.     746. <
      4831    1   2  32  -7     432.    -107.    1252. <
      4832    1   2  32   7     432.    -506.    1625. <
      4833    1  -2  32  -7     423.      80.    1625. <
      4834    1   4  32   7     156.    1252.    1066. <
      4835    1  -4  32  -7     147.     346.    1092. <
      4836    2   7 -33  -3    3567.    3730.     639. o
      4836    1  -3  33   7    3567.    3730.     639. o
      4837    2   7 -33  -1    3095.    2505.     906. o
      4837    1  -1  33   7    3095.    2505.     906. o
      4838    2   7 -33   1    2884.    2265.    1279. <
      4838    1   1  33   7    2884.    2265.    1279. <
      4839    2  -7 -33  -1    2921.    1599.    1706. <
      4839    1  -1  33  -7    2921.    1599.    1706. <
      4840    2   7 -33   3    3466.    2451.    1173. o
      4840    1   3  33   7    3466.    2451.    1173. o
      4841    2  -7 -33  -3    3790.    4609.    1118. o
      4841    1  -3  33  -7    3790.    4609.    1118. o
      4842    1  -2  34   7     133.      27.     826. <
      4843    1   2  34  -7     126.     853.    1812. <
      4844    1   2  34   7     126.   -1572.    1678. <
      4845    1  -2  34  -7     133.    2878.    1598. <
      4846    2   7 -35  -3    1252.    2105.     799. o
      4846    1  -3  35   7    1252.    2105.     799. o
      4847    2   7 -35  -1    1847.    1439.     853. <
      4847    1  -1  35   7    1847.    1439.     853. <
      4848    2   7 -35   1    1975.    3810.    1731. o
      4848    1   1  35   7    1975.    3810.    1731. o
      4849    2  -7 -35  -1    1916.    2851.    1198. o
      4849    1  -1  35  -7    1916.    2851.    1198. o
      4850    2   7 -35   3    1126.     -53.    1093. <
      4850    1   3  35   7    1126.     -53.    1093. <
      4851    2  -7 -35  -3    1123.    1039.    1519. <
      4851    1  -3  35  -7    1123.    1039.    1519. <
      4852    1  -2  36   7     794.     -80.     799. <
      4853    1   2  36  -7     788.     826.    1918. <
      4854    1   2  36   7     788.    -906.    1625. <
      4855    1  -2  36  -7     794.     666.    1092. <
      4856    2   7 -37  -1   14346.   12123.     914. o
      4856    1  -1  37   7   14346.   12123.     914. o
      4857    2   7 -37   1   14999.   19317.    1854. o
      4857    1   1  37   7   14999.   19317.    1854. o
      4858    2  -7 -37  -1   14736.    9139.    1265. o
      4858    1  -1  37  -7   14736.    9139.    1265. o
      4859    1  -2  38   7     899.    -213.     826. <
      4860    1   2  38  -7     897.      80.    1998. <
      4861    1   2  38   7     897.   -2664.    1571. <
      4862    1  -2  38  -7     899.    1572.    1066. <
      4863    2   7 -39  -1     820.    1279.     879. <
      4863    1  -1  39   7     820.    1279.     879. <
      4864    2   7 -39   1     856.     719.    1172. <
      4864    1   1  39   7     856.     719.    1172. <
      4865    2  -7 -39  -1     946.     613.    1013. <
      4865    1  -1  39  -7     946.     613.    1013. <
      4866    2   8   0  -6    8178.    8260.    1332. o
      4866    1  -6   0   8    8178.    8260.    1332. o
      4867    2   8   0  -4   80261.   86461.    1165. o
      4867    1  -4   0   8   80261.   86461.    1165. o
      4868    2   8   0  -2   28270.   29575.    1002. o
      4868    1  -2   0   8   28270.   29575.    1002. o
      4869    2   8   0   0  108813.  113426.    1510. o
      4869    1   0   0   8  108813.  113426.    1510. o
      4870    2   8   0   2   27056.   31201.    1551. o
      4870    1   2   0   8   27056.   31201.    1551. o
      4871    2   8   0   4   80948.   78788.    2814. o
      4871    1   4   0   8   80948.   78788.    2814. o
      4872    2  -8   0  -4   80114.   65359.    2082. o
      4872    1  -4   0  -8   80114.   65359.    2082. o
      4873    2   8   0   6    7328.    4183.    1362. o
      4873    1   6   0   8    7328.    4183.    1362. o
      4874    2  -8   0  -6    8660.    5622.    1788. o
      4874    1  -6   0  -8    8660.    5622.    1788. o
      4875    1  -5   1   8    1587.    1012.     613. <
      4876    1  -3   1   8    1347.    1119.     560. <
      4877    1  -1   1   8    1190.     400.     533. <
      4878    1   1   1   8    1212.    1146.     666. <
      4879    1   3   1   8    1346.     533.    1679. <
      4880    1  -3   1  -8    1347.     986.     959. <
      4881    1   5   1   8    1574.     506.    1332. <
      4882    1  -5   1  -8    1587.      27.     959. <
      4883    2   8  -2  -6    1122.    -107.     826. <
      4883    1  -6   2   8    1122.    -107.     826. <
      4884    2  -8  -2   6    1104.     799.     986. <
      4884    1   6   2  -8    1104.     799.     986. <
      4885    2   8  -2  -4     679.    1865.     559. o
      4885    1  -4   2   8     679.    1865.     559. o
      4886    2   8  -2  -2   11861.   12203.     664. o
      4886    1  -2   2   8   11861.   12203.     664. o
      4887    2   8  -2   0    1447.     933.     640. <
      4887    1   0   2   8    1447.     933.     640. <
      4888    2   8  -2   2   11795.   10818.    1175. o
      4888    1   2   2   8   11795.   10818.    1175. o
      4889    2   8  -2   4     713.    1972.    1305. <
      4889    1   4   2   8     713.    1972.    1305. <
      4890    2  -8  -2  -4     763.    1092.     906. <
      4890    1  -4   2  -8     763.    1092.     906. <
      4891    2   8  -2   6    1136.    1705.    1092. <
      4891    1   6   2   8    1136.    1705.    1092. <
      4892    2  -8  -2  -6    1089.     453.    1066. <
      4892    1  -6   2  -8    1089.     453.    1066. <
      4893    1  -5   3   8     839.      27.     640. <
      4894    1  -3   3   8     718.     666.     453. <
      4895    1  -1   3   8     730.     133.     560. <
      4896    1   1   3   8     655.    1066.     719. <
      4897    1   3   3   8     752.     746.    1892. <
      4898    1  -3   3  -8     718.    -240.     986. <
      4899    1   5   3   8     822.     293.    1146. <
      4900    1  -5   3  -8     839.    1945.     932. o
      4901    2   8  -4  -6    1424.    1386.     560. o
      4901    1  -6   4   8    1424.    1386.     560. o
      4902    2  -8  -4   6    1509.   -1199.    1039. <
      4902    1   6   4  -8    1509.   -1199.    1039. <
      4903    2   8  -4  -4   38720.   36610.     722. o
      4903    1  -4   4   8   38720.   36610.     722. o
      4904    2   8  -4  -2    1747.    2505.     532. o
      4904    1  -2   4   8    1747.    2505.     532. o
      4905    2   8  -4   0   71273.   65466.    1015. o
      4905    1   0   4   8   71273.   65466.    1015. o
      4906    2   8  -4   2    2264.    1519.    1359. <
      4906    1   2   4   8    2264.    1519.    1359. <
      4907    2   8  -4   4   38324.   40286.    1854. o
      4907    1   4   4   8   38324.   40286.    1854. o
      4908    2  -8  -4  -4   39170.   28989.    1220. o
      4908    1  -4   4  -8   39170.   28989.    1220. o
      4909    2   8  -4   6    1645.    1838.    1252. <
      4909    1   6   4   8    1645.    1838.    1252. <
      4910    2  -8  -4  -6    1289.    1039.    1039. <
      4910    1  -6   4  -8    1289.    1039.    1039. <
      4911    1  -5   5   8    1203.      27.     533. <
      4912    1  -3   5   8    2669.    1039.     481. o
      4913    1  -1   5   8    1402.     879.     507. <
      4914    1   1   5   8    1344.    1386.     826. <
      4915    1   3   5   8    2769.       0.    1333. <
      4916    1  -3   5  -8    2669.    -560.    1439. <
      4917    1   5   5   8    1163.    -133.    1119. <
      4918    1  -5   5  -8    1203.     933.     959. <
      4919    2   8  -6  -6    1823.    1386.     693. <
      4919    1  -6   6   8    1823.    1386.     693. <
      4920    2  -8  -6   6    1697.    2052.    1492. <
      4920    1   6   6  -8    1697.    2052.    1492. <
      4921    2   8  -6  -4   14152.   14441.     664. o
      4921    1  -4   6   8   14152.   14441.     664. o
      4922    2   8  -6  -2    7366.    7167.     560. o
      4922    1  -2   6   8    7366.    7167.     560. o
      4923    2   8  -6   0   15054.   12923.     625. o
      4923    1   0   6   8   15054.   12923.     625. o
      4924    2   8  -6   2    7001.    7754.    1331. o
      4924    1   2   6   8    7001.    7754.    1331. o
      4925    2  -8  -6  -2    7580.    4450.    1044. o
      4925    1  -2   6  -8    7580.    4450.    1044. o
      4926    2   8  -6   4   14772.   13056.    1390. o
      4926    1   4   6   8   14772.   13056.    1390. o
      4927    2  -8  -6  -4   14000.   10791.    1022. o
      4927    1  -4   6  -8   14000.   10791.    1022. o
      4928    2   8  -6   6    1463.     799.    1066. <
      4928    1   6   6   8    1463.     799.    1066. <
      4929    2  -8  -6  -6    2057.     -80.    1226. <
      4929    1  -6   6  -8    2057.     -80.    1226. <
      4930    1  -5   7   8     235.    -480.     666. <
      4931    1   5   7  -8     234.    1199.    1439. <
      4932    1  -3   7   8     392.    2798.     611. o
      4933    1  -1   7   8     622.      53.     533. <
      4934    1   1   7   8     616.    1918.     799. o
      4935    1   3   7   8     400.     -53.    1172. <
      4936    1  -3   7  -8     392.    2291.    1492. <
      4937    1   5   7   8     234.    1572.    1385. <
      4938    1  -5   7  -8     235.    1119.    1146. <
      4939    2   8  -8  -6    5955.    4130.     749. o
      4939    1  -6   8   8    5955.    4130.     749. o
      4940    2  -8  -8   6    5643.    4556.    1520. o
      4940    1   6   8  -8    5643.    4556.    1520. o
      4941    2   8  -8  -4   42542.   40420.     828. o
      4941    1  -4   8   8   42542.   40420.     828. o
      4942    2   8  -8  -2   28079.   25286.     669. o
      4942    1  -2   8   8   28079.   25286.     669. o
      4943    2   8  -8   0   68121.   60803.    1010. o
      4943    1   0   8   8   68121.   60803.    1010. o
      4944    2   8  -8   2   27674.   28510.    1408. o
      4944    1   2   8   8   27674.   28510.    1408. o
      4945    2  -8  -8  -2   27906.   20356.    1680. o
      4945    1  -2   8  -8   27906.   20356.    1680. o
      4946    2   8  -8   4   43322.   39354.    1678. o
      4946    1   4   8   8   43322.   39354.    1678. o
      4947    2  -8  -8  -4   42417.   29309.    2005. o
      4947    1  -4   8  -8   42417.   29309.    2005. o
      4948    2   8  -8   6    5577.    3943.    1094. o
      4948    1   6   8   8    5577.    3943.    1094. o
      4949    2  -8  -8  -6    6021.    3037.    1281. o
      4949    1  -6   8  -8    6021.    3037.    1281. o
      4950    1  -5   9   8    1211.    -107.     533. <
      4951    1   5   9  -8    1226.    -373.    1439. <
      4952    1  -3   9   8    1941.    1519.     586. o
      4953    1  -1   9   8    1364.     613.     560. <
      4954    1   1   9   8    1472.    1092.     799. <
      4955    1   3   9   8    1870.    1732.    1226. <
      4956    1  -3   9  -8    1941.    2531.    1545. <
      4957    1   5   9   8    1226.       0.    1146. <
      4958    1  -5   9  -8    1211.     107.     959. <
      4959    2   8 -10  -4   16466.   13562.     683. o
      4959    1  -4  10   8   16466.   13562.     683. o
      4960    2   8 -10  -2    1236.    2984.     531. o
      4960    1  -2  10   8    1236.    2984.     531. o
      4961    2   8 -10   0   41445.   33599.     842. o
      4961    1   0  10   8   41445.   33599.     842. o
      4962    2   8 -10   2    1397.    1865.    1199. <
      4962    1   2  10   8    1397.    1865.    1199. <
      4963    2  -8 -10  -2     858.    1545.    1545. <
      4963    1  -2  10  -8     858.    1545.    1545. <
      4964    2   8 -10   4   16166.   15427.    1095. o
      4964    1   4  10   8   16166.   15427.    1095. o
      4965    2  -8 -10  -4   16748.   14841.    1391. o
      4965    1  -4  10  -8   16748.   14841.    1391. o
      4966    1  -5  11   8      73.     480.     666. <
      4967    1   5  11  -8      81.    1386.    1492. <
      4968    1  -3  11   8      19.    1146.     612. <
      4969    1  -1  11   8      16.     346.     666. <
      4970    1   1  11   8      24.     773.     773. <
      4971    1   3  11   8      29.    1119.    1146. <
      4972    1  -3  11  -8      19.    1812.    1518. <
      4973    1   5  11   8      81.    -107.    1412. <
      4974    1  -5  11  -8      73.    1545.    1812. <
      4975    2   8 -12  -4    7818.    8659.     690. o
      4975    1  -4  12   8    7818.    8659.     690. o
      4976    2   8 -12  -2    1856.    2478.     506. o
      4976    1  -2  12   8    1856.    2478.     506. o
      4977    2   8 -12   0   14407.   15294.     741. o
      4977    1   0  12   8   14407.   15294.     741. o
      4978    2   8 -12   2    2039.    2718.    1225. o
      4978    1   2  12   8    2039.    2718.    1225. o
      4979    2  -8 -12  -2    1262.     160.    1545. <
      4979    1  -2  12  -8    1262.     160.    1545. <
      4980    2   8 -12   4    7517.    9885.    1007. o
      4980    1   4  12   8    7517.    9885.    1007. o
      4981    2  -8 -12  -4    8237.    5356.    1735. o
      4981    1  -4  12  -8    8237.    5356.    1735. o
      4982    1  -5  13   8    1478.    1279.     666. <
      4983    1   5  13  -8    1490.   -1066.    1385. <
      4984    1  -3  13   8    1469.    1865.     613. o
      4985    1  -1  13   8    1481.    1119.     666. <
      4986    1   1  13   8    1428.    3357.     904. o
      4987    1   3  13   8    1453.    1439.     959. <
      4988    1  -3  13  -8    1469.    -240.    1545. <
      4989    1   5  13   8    1490.    1172.    1172. <
      4990    1  -5  13  -8    1478.    1599.    1306. <
      4991    2   8 -14  -4   39664.   34638.     858. o
      4991    1  -4  14   8   39664.   34638.     858. o
      4992    2  -8 -14   4   39978.   35357.    1837. o
      4992    1   4  14  -8   39978.   35357.    1837. o
      4993    2   8 -14  -2   27338.   25685.     735. o
      4993    1  -2  14   8   27338.   25685.     735. o
      4994    2   8 -14   0   58658.   58245.     887. o
      4994    1   0  14   8   58658.   58245.     887. o
      4995    2   8 -14   2   26554.   29336.    1478. o
      4995    1   2  14   8   26554.   29336.    1478. o
      4996    2  -8 -14  -2   27096.   17399.    1684. o
      4996    1  -2  14  -8   27096.   17399.    1684. o
      4997    2   8 -14   4   40059.   38075.    1190. o
      4997    1   4  14   8   40059.   38075.    1190. o
      4998    2  -8 -14  -4   39583.   31654.    2008. o
      4998    1  -4  14  -8   39583.   31654.    2008. o
      4999    1  -5  15   8      79.     746.     746. <
      5000    1   5  15  -8     106.     133.    1492. <
      5001    1  -3  15   8      45.     773.     533. <
      5002    1  -1  15   8       2.     959.     639. <
      5003    1   1  15   8      21.     -80.     986. <
      5004    1   3  15   8      58.    1812.    1039. <
      5005    1  -3  15  -8      45.    -506.    1172. <
      5006    1   5  15   8     106.    -266.    1012. <
      5007    1  -5  15  -8      79.    -187.    1838. <
      5008    2   8 -16  -4   11396.   10631.     722. o
      5008    1  -4  16   8   11396.   10631.     722. o
      5009    2  -8 -16   4   11771.   12470.    1704. o
      5009    1   4  16  -8   11771.   12470.    1704. o
      5010    2   8 -16  -2   21061.   21795.     687. o
      5010    1  -2  16   8   21061.   21795.     687. o
      5011    2   8 -16   0   15300.   14495.     750. o
      5011    1   0  16   8   15300.   14495.     750. o
      5012    2   8 -16   2   20939.   23714.    1266. o
      5012    1   2  16   8   20939.   23714.    1266. o
      5013    2  -8 -16  -2   20234.   13002.    1250. o
      5013    1  -2  16  -8   20234.   13002.    1250. o
      5014    2   8 -16   4   11583.   10365.     989. o
      5014    1   4  16   8   11583.   10365.     989. o
      5015    2  -8 -16  -4   11584.    6341.    1367. o
      5015    1  -4  16  -8   11584.    6341.    1367. o
      5016    1  -5  17   8     400.     826.     613. <
      5017    1   5  17  -8     373.     586.    1625. <
      5018    1  -3  17   8     637.     826.     559. <
      5019    1  -1  17   8     524.     480.     639. <
      5020    1   1  17   8     513.    -879.     986. <
      5021    1  -1  17  -8     524.     -80.     986. <
      5022    1   3  17   8     681.    1199.    1012. <
      5023    1  -3  17  -8     637.   -1652.    1652. <
      5024    1   5  17   8     373.     373.     879. <
      5025    1  -5  17  -8     400.   -1652.    1252. <
      5026    2   8 -18  -4   12113.   10365.     595. o
      5026    1  -4  18   8   12113.   10365.     595. o
      5027    2  -8 -18   4   12200.   14308.    1594. o
      5027    1   4  18  -8   12200.   14308.    1594. o
      5028    2   8 -18  -2    1753.    1998.     613. o
      5028    1  -2  18   8    1753.    1998.     613. o
      5029    2   8 -18   0   17514.   16546.     805. o
      5029    1   0  18   8   17514.   16546.     805. o
      5030    2   8 -18   2    2085.     506.    1173. <
      5030    1   2  18   8    2085.     506.    1173. <
      5031    2  -8 -18  -2    1046.    1492.    1599. <
      5031    1  -2  18  -8    1046.    1492.    1599. <
      5032    2   8 -18   4   11842.   10418.     990. o
      5032    1   4  18   8   11842.   10418.     990. o
      5033    2  -8 -18  -4   12470.    8047.    1394. o
      5033    1  -4  18  -8   12470.    8047.    1394. o
      5034    1  -5  19   8     180.    -719.     773. <
      5035    1   5  19  -8     185.      27.    1519. <
      5036    1  -3  19   8     463.     826.     506. <
      5037    1  -1  19   8     262.    1066.     693. <
      5038    1   1  19   8     287.     933.     932. <
      5039    1  -1  19  -8     262.    -613.    1492. <
      5040    1   3  19   8     442.     853.     879. <
      5041    1  -3  19  -8     463.    -506.    1226. <
      5042    1   5  19   8     185.      80.    1012. <
      5043    1  -5  19  -8     180.    -453.    1492. <
      5044    2   8 -20  -4     145.    2158.     772. o
      5044    1  -4  20   8     145.    2158.     772. o
      5045    2  -8 -20   4     198.     400.    1652. <
      5045    1   4  20  -8     198.     400.    1652. <
      5046    2   8 -20  -2    2349.    2478.     639. o
      5046    1  -2  20   8    2349.    2478.     639. o
      5047    2   8 -20   0     467.       0.     746. <
      5047    1   0  20   8     467.       0.     746. <
      5048    2   8 -20   2    2308.    2052.    1066. <
      5048    1   2  20   8    2308.    2052.    1066. <
      5049    2  -8 -20  -2    2327.    1386.    1226. <
      5049    1  -2  20  -8    2327.    1386.    1226. <
      5050    2   8 -20   4     167.    -107.    1119. <
      5050    1   4  20   8     167.    -107.    1119. <
      5051    2  -8 -20  -4     176.    1945.    1918. <
      5051    1  -4  20  -8     176.    1945.    1918. <
      5052    1  -3  21   8     546.     933.     613. <
      5053    1  -1  21   8     620.     506.     666. <
      5054    1   1  21   8     542.    1306.     906. <
      5055    1  -1  21  -8     619.     480.    1146. <
      5056    1   3  21   8     625.     -27.    1066. <
      5057    1  -3  21  -8     546.    -639.    1306. <
      5058    2   8 -22  -4   22049.   20943.     886. o
      5058    1  -4  22   8   22049.   20943.     886. o
      5059    2  -8 -22   4   22670.   11058.    1418. o
      5059    1   4  22  -8   22670.   11058.    1418. o
      5060    2   8 -22  -2   25950.   25072.     807. o
      5060    1  -2  22   8   25950.   25072.     807. o
      5061    2   8 -22   0   31404.   26511.    1022. o
      5061    1   0  22   8   31404.   26511.    1022. o
      5062    2   8 -22   2   26012.   24060.    1289. o
      5062    1   2  22   8   26012.   24060.    1289. o
      5063    2  -8 -22  -2   25589.   19370.    1805. o
      5063    1  -2  22  -8   25589.   19370.    1805. o
      5064    2   8 -22   4   22554.   17612.    2143. o
      5064    1   4  22   8   22554.   17612.    2143. o
      5065    2  -8 -22  -4   22165.   14948.    2174. o
      5065    1  -4  22  -8   22165.   14948.    2174. o
      5066    1  -3  23   8     479.    1199.     639. <
      5067    1  -1  23   8     215.    1146.     586. <
      5068    1   1  23   8     216.     480.    1039. <
      5069    1  -1  23  -8     215.   -1066.    1545. <
      5070    1   3  23   8     418.    1892.    1092. <
      5071    1  -3  23  -8     479.    3544.    1837. <
      5072    2   8 -24  -4     448.     826.     639. <
      5072    1  -4  24   8     448.     826.     639. <
      5073    2  -8 -24   4     586.    3224.    1758. <
      5073    1   4  24  -8     586.    3224.    1758. <
      5074    2   8 -24  -2    3924.    3517.     720. o
      5074    1  -2  24   8    3924.    3517.     720. o
      5075    2   8 -24   0     726.    2025.     745. o
      5075    1   0  24   8     726.    2025.     745. o
      5076    2   8 -24   2    3909.    1865.    1040. <
      5076    1   2  24   8    3909.    1865.    1040. <
      5077    2  -8 -24  -2    3879.    1279.    1253. <
      5077    1  -2  24  -8    3879.    1279.    1253. <
      5078    2   8 -24   4     426.     -27.    1332. <
      5078    1   4  24   8     426.     -27.    1332. <
      5079    2  -8 -24  -4     607.    2824.    1998. <
      5079    1  -4  24  -8     607.    2824.    1998. <
      5080    1  -3  25   8      29.     933.     772. <
      5081    1   3  25  -8      30.   -2451.    1305. <
      5082    1  -1  25   8      16.    1279.     772. <
      5083    1   1  25   8      19.     426.    1066. <
      5084    1  -1  25  -8      16.    1092.    1119. <
      5085    1   3  25   8      30.     400.    1279. <
      5086    1  -3  25  -8      29.    2158.    1918. <
      5087    2   8 -26  -2    8450.    7354.     776. o
      5087    1  -2  26   8    8450.    7354.     776. o
      5088    2   8 -26   0   19137.   12843.     959. o
      5088    1   0  26   8   19137.   12843.     959. o
      5089    2   8 -26   2    8511.    5782.    1283. o
      5089    1   2  26   8    8511.    5782.    1283. o
      5090    2  -8 -26  -2    8110.    5968.    1335. o
      5090    1  -2  26  -8    8110.    5968.    1335. o
      5091    1  -3  27   8     172.     719.     586. <
      5092    1   3  27  -8     180.    2105.    1652. <
      5093    1  -1  27   8     376.    1119.     772. <
      5094    1   1  27   8     358.    1066.    1146. <
      5095    1  -1  27  -8     376.    2238.    1172. <
      5096    1   3  27   8     180.    3517.    1784. <
      5097    1  -3  27  -8     172.    1412.    1865. <
      5098    2   8 -28  -2    7570.    9139.     768. o
      5098    1  -2  28   8    7570.    9139.     768. o
      5099    2   8 -28   0    7454.    3704.     779. o
      5099    1   0  28   8    7454.    3704.     779. o
      5100    2   8 -28   2    7520.    7967.    1918. o
      5100    1   2  28   8    7520.    7967.    1918. o
      5101    2  -8 -28  -2    7554.    9352.    1356. o
      5101    1  -2  28  -8    7554.    9352.    1356. o
      5102    1  -3  29   8     247.    2451.     771. o
      5103    1  -1  29   8     191.   -1172.     719. <
      5104    1   1  29   8     166.    -107.    1306. <
      5105    1  -1  29  -8     191.     480.    1226. <
      5106    1   3  29   8     252.    -613.    1119. <
      5107    1  -3  29  -8     247.     187.    1732. <
      5108    2   8 -30  -2   21157.   20223.     885. o
      5108    1  -2  30   8   21157.   20223.     885. o
      5109    2   8 -30   0   15248.    9965.     872. o
      5109    1   0  30   8   15248.    9965.     872. o
      5110    2   8 -30   2   20870.   22248.    1968. o
      5110    1   2  30   8   20870.   22248.    1968. o
      5111    2  -8 -30  -2   20965.   13855.    1460. o
      5111    1  -2  30  -8   20965.   13855.    1460. o
      5112    1  -1  31   8      22.      53.     799. <
      5113    1   1  31   8      27.      80.    1492. <
      5114    1  -1  31  -8      22.     986.    1785. <
      5115    2   8 -32  -2    1213.    1012.     799. <
      5115    1  -2  32   8    1213.    1012.     799. <
      5116    2   8 -32   0    1088.    1146.     853. <
      5116    1   0  32   8    1088.    1146.     853. <
      5117    2   8 -32   2    1215.    -480.    1705. <
      5117    1   2  32   8    1215.    -480.    1705. <
      5118    2  -8 -32  -2     981.    -480.    1252. <
      5118    1  -2  32  -8     981.    -480.    1252. <
      5119    1  -1  33   8      82.    1092.     746. <
      5120    1   1  33   8     101.    -266.    1785. <
      5121    1  -1  33  -8      82.     719.    1838. <
      5122    2   8 -34   0    1435.    1172.     879. <
      5122    1   0  34   8    1435.    1172.     879. <
      5123    2   9  -1  -3   23361.   15001.     626. o
      5123    1  -3   1   9   23361.   15001.     626. o
      5124    2   9  -1  -1   20989.   18092.     740. o
      5124    1  -1   1   9   20989.   18092.     740. o
      5125    2   9  -1   1   20096.   18092.     943. o
      5125    1   1   1   9   20096.   18092.     943. o
      5126    2   9  -1   3   24088.   18385.    1251. o
      5126    1   3   1   9   24088.   18385.    1251. o
      5127    1  -4   2   9     479.    1599.     666. o
      5128    1  -2   2   9     364.    1199.     453. o
      5129    1   2   2   9     352.    1199.    1225. <
      5130    1   4   2   9     486.     320.    1439. <
      5131    1  -4   2  -9     479.     -53.    1572. <
      5132    2   9  -3  -3    8238.    6128.     645. o
      5132    1  -3   3   9    8238.    6128.     645. o
      5133    2   9  -3  -1    4684.    6395.     662. o
      5133    1  -1   3   9    4684.    6395.     662. o
      5134    2   9  -3   1    4266.    5542.     717. o
      5134    1   1   3   9    4266.    5542.     717. o
      5135    2   9  -3   3    8758.    6901.    1069. o
      5135    1   3   3   9    8758.    6901.    1069. o
      5136    1  -4   4   9     163.     586.     559. <
      5137    1  -2   4   9     183.      53.     506. <
      5138    1   2   4   9     186.    1146.    1146. <
      5139    1   4   4   9     170.   -1332.    1145. <
      5140    1  -4   4  -9     163.    2798.    1598. <
      5141    2   9  -5  -3    2839.    2105.     560. o
      5141    1  -3   5   9    2839.    2105.     560. o
      5142    2   9  -5  -1    3537.    3863.     692. o
      5142    1  -1   5   9    3537.    3863.     692. o
      5143    2   9  -5   1    3532.    2824.     800. o
      5143    1   1   5   9    3532.    2824.     800. o
      5144    2   9  -5   3    2894.    4316.    1304. o
      5144    1   3   5   9    2894.    4316.    1304. o
      5145    1  -4   6   9     451.     666.     586. <
      5146    1  -2   6   9     212.    1199.     532. o
      5147    1   2   6   9     223.    1892.    1172. <
      5148    1   4   6   9     427.     160.    1039. <
      5149    1  -4   6  -9     451.     213.    1092. <
      5150    2   9  -7  -3   30581.   22621.     766. o
      5150    1  -3   7   9   30581.   22621.     766. o
      5151    2   9  -7  -1   31318.   24033.     861. o
      5151    1  -1   7   9   31318.   24033.     861. o
      5152    2   9  -7   1   29506.   25392.     964. o
      5152    1   1   7   9   29506.   25392.     964. o
      5153    2   9  -7   3   31551.   26831.    1385. o
      5153    1   3   7   9   31551.   26831.    1385. o
      5154    2  -9  -7  -3   30709.   18678.    1335. o
      5154    1  -3   7  -9   30709.   18678.    1335. o
      5155    1  -4   8   9     537.     879.     559. <
      5156    1  -2   8   9     368.    1652.     639. o
      5157    1   2   8   9     343.     906.     826. <
      5158    1   4   8   9     585.     -27.    1039. <
      5159    1  -4   8  -9     537.    -373.    1199. <
      5160    2   9  -9  -3    3842.    3464.     613. o
      5160    1  -3   9   9    3842.    3464.     613. o
      5161    2   9  -9  -1    3130.    3704.     585. o
      5161    1  -1   9   9    3130.    3704.     585. o
      5162    2   9  -9   1    2949.    2585.     906. o
      5162    1   1   9   9    2949.    2585.     906. o
      5163    2   9  -9   3    3789.    3251.    1146. o
      5163    1   3   9   9    3789.    3251.    1146. o
      5164    2  -9  -9  -3    3985.    2691.    1120. o
      5164    1  -3   9  -9    3985.    2691.    1120. o
      5165    1  -4  10   9      46.     320.     560. <
      5166    1  -2  10   9     212.    1119.     586. <
      5167    1   2  10   9     232.    1652.    1359. <
      5168    1   4  10   9      43.    -373.    1252. <
      5169    1  -4  10  -9      46.     719.    1146. <
      5170    2   9 -11  -3   13770.   10684.     654. o
      5170    1  -3  11   9   13770.   10684.     654. o
      5171    2   9 -11  -1   14228.   13056.     805. o
      5171    1  -1  11   9   14228.   13056.     805. o
      5172    2   9 -11   1   13659.   13269.     961. o
      5172    1   1  11   9   13659.   13269.     961. o
      5173    2   9 -11   3   14359.   11910.    1126. o
      5173    1   3  11   9   14359.   11910.    1126. o
      5174    2  -9 -11  -3   13520.    7381.    1265. o
      5174    1  -3  11  -9   13520.    7381.    1265. o
      5175    1  -4  12   9     651.     506.     640. <
      5176    1  -2  12   9     156.     506.     639. <
      5177    1   2  12   9     149.     213.    1119. <
      5178    1   4  12   9     642.    2265.    1198. <
      5179    1  -4  12  -9     651.    1838.    1678. <
      5180    2   9 -13  -3    4184.    4077.     666. o
      5180    1  -3  13   9    4184.    4077.     666. o
      5181    2   9 -13  -1    5686.    4476.     668. o
      5181    1  -1  13   9    5686.    4476.     668. o
      5182    2   9 -13   1    5487.    3997.     828. o
      5182    1   1  13   9    5487.    3997.     828. o
      5183    2   9 -13   3    4367.    3277.    1200. o
      5183    1   3  13   9    4367.    3277.    1200. o
      5184    2  -9 -13  -3    4301.    -266.    1067. <
      5184    1  -3  13  -9    4301.    -266.    1067. <
      5185    1  -2  14   9     280.      53.     693. <
      5186    1   2  14   9     306.     719.    1226. <
      5187    2   9 -15  -3   26137.   20143.     767. o
      5187    1  -3  15   9   26137.   20143.     767. o
      5188    2   9 -15  -1   27167.   21209.     869. o
      5188    1  -1  15   9   27167.   21209.     869. o
      5189    2   9 -15   1   25980.   21369.     962. o
      5189    1   1  15   9   25980.   21369.     962. o
      5190    2   9 -15   3   26999.   22994.    1273. o
      5190    1   3  15   9   26999.   22994.    1273. o
      5191    2  -9 -15  -3   26268.   18598.    1862. o
      5191    1  -3  15  -9   26268.   18598.    1862. o
      5192    1  -2  16   9     178.    1465.     666. o
      5193    1   2  16   9     173.     826.    1092. <
      5194    1  -2  16  -9     178.     533.    1119. <
      5195    2   9 -17  -3    1367.    1359.     666. o
      5195    1  -3  17   9    1367.    1359.     666. o
      5196    2   9 -17  -1     480.    1812.     665. o
      5196    1  -1  17   9     480.    1812.     665. o
      5197    2   9 -17   1     452.    1945.     852. o
      5197    1   1  17   9     452.    1945.     852. o
      5198    2   9 -17   3    1428.    1252.     986. <
      5198    1   3  17   9    1428.    1252.     986. <
      5199    2  -9 -17  -3    1323.   -2531.    1198. <
      5199    1  -3  17  -9    1323.   -2531.    1198. <
      5200    1  -2  18   9      77.    1146.     586. <
      5201    1   2  18   9      80.       0.    1146. <
      5202    1  -2  18  -9      77.    -799.    1119. <
      5203    2   9 -19  -3    5079.    2904.     722. o
      5203    1  -3  19   9    5079.    2904.     722. o
      5204    2   9 -19  -1    4527.    4849.     666. o
      5204    1  -1  19   9    4527.    4849.     666. o
      5205    2   9 -19   1    4467.    2425.     828. o
      5205    1   1  19   9    4467.    2425.     828. o
      5206    2   9 -19   3    5292.    3251.    1094. o
      5206    1   3  19   9    5292.    3251.    1094. o
      5207    2  -9 -19  -3    4877.    5356.    1758. o
      5207    1  -3  19  -9    4877.    5356.    1758. o
      5208    1  -2  20   9     162.    -160.     639. <
      5209    1   2  20   9     170.     533.     986. <
      5210    1  -2  20  -9     162.     346.    1652. <
      5211    2   9 -21  -1    7193.    6128.     749. o
      5211    1  -1  21   9    7193.    6128.     749. o
      5212    2   9 -21   1    6595.    3997.     936. o
      5212    1   1  21   9    6595.    3997.     936. o
      5213    1  -2  22   9     337.      80.     719. <
      5214    1   2  22   9     339.     533.     986. <
      5215    1  -2  22  -9     337.    1332.    1119. <
      5216    2   9 -23  -1   12642.    8313.     840. o
      5216    1  -1  23   9   12642.    8313.     840. o
      5217    2   9 -23   1   12290.    7034.     815. o
      5217    1   1  23   9   12290.    7034.     815. o
      5218    2  10   0   0   10779.    7727.    1205. o
      5218    1   0   0  10   10779.    7727.    1205. o
      5219    1  -1   1  10     648.     426.     693. <
      5220    1   1   1  10     644.     400.     826. <
      5221    2  10  -2   0    3544.    2691.     720. o
      5221    1   0   2  10    3544.    2691.     720. o
      5222    1  -1   3  10     360.     533.     586. <
      5223    1   1   3  10     385.    1146.     826. <
      5224    2  10  -4   0    1441.    1599.     719. o
      5224    1   0   4  10    1441.    1599.     719. o
      5225    1  -1   5  10     779.     -27.     640. <
      5226    1   1   5  10     780.     107.     879. <
      5227    2  10  -6   0    3337.    3544.     852. o
      5227    1   0   6  10    3337.    3544.     852. o
      5228    2  10  -8   0   12808.    8286.     814. o
      5228    1   0   8  10   12808.    8286.     814. o

data_II
#=======================================================================

# 5. CHEMICAL DATA

_chemical_name_systematic
; ?
;
_chemical_name_common                    'Ethylammonium Lead Chloride'
_chemical_formula_moiety                 4(C2H5NH3),Pb3Cl10 
_chemical_formula_structural             ?
_chemical_formula_analytical             ?
_chemical_formula_iupac                  ?
_chemical_formula_sum                    'C8 H32 Cl10 N4 Pb3'
_chemical_formula_weight                 1160.5
_chemical_melting_point                  ?
_chemical_compound_source                ?
_chemical_absolute_configuration         ?

#=======================================================================

# 6. CRYSTAL DATA

_symmetry_cell_setting                   orthorhombic
_symmetry_space_group_name_H-M           'A 21 m a'
_symmetry_space_group_name_Hall          'A 2xa;-2y;-2za'
_symmetry_Int_Tables_number              36

loop_
 _space_group_symop_id
 _space_group_symop_operation_xyz
 1   x,y,z
 2   x+1/2,-y,-z
 3   x+1/2,y,-z
 4   x,-y,z
 5   x,y+1/2,z+1/2
 6   x+1/2,-y+1/2,-z+1/2
 7   x+1/2,y+1/2,-z+1/2
 8   x,-y+1/2,z+1/2

_cell_length_a                           8.024(8)
_cell_length_b                           45.498(7)
_cell_length_c                           8.08(3)
_cell_angle_alpha                        90
_cell_angle_beta                         90
_cell_angle_gamma                        90
_cell_volume                             2949(12)

loop_
 _twin_individual_id
 _twin_individual_mass_fraction_refined
 _twin_individual_twin_matrix_11
 _twin_individual_twin_matrix_12
 _twin_individual_twin_matrix_13
 _twin_individual_twin_matrix_21
 _twin_individual_twin_matrix_22
 _twin_individual_twin_matrix_23
 _twin_individual_twin_matrix_31
 _twin_individual_twin_matrix_32
 _twin_individual_twin_matrix_33
1 0.45(9)
1 0 0
0 1 0
0 0 1
2 0.55(9)
-1 0 0
0 -1 0
0 0 -1

_cell_formula_units_Z                    4

_cell_measurement_reflns_used            629
_cell_measurement_theta_min              3.60
_cell_measurement_theta_max              27.99
_cell_measurement_temperature            293
_cell_special_details
; ?
;

_exptl_crystal_density_diffrn            2.6136
_exptl_crystal_density_meas              ?
_exptl_crystal_density_method            ?
_exptl_crystal_F_000                     2096

_exptl_absorpt_coefficient_mu            17.994
_exptl_crystal_description               plate
_exptl_crystal_size_max                  0.0860 
_exptl_crystal_size_mid                  0.0753 
_exptl_crystal_size_min                  0.0337 
_exptl_crystal_size_rad                  ?
_exptl_crystal_colour                    colorless
_exptl_absorpt_correction_type           integration
_exptl_absorpt_process_details           ?
_exptl_absorpt_correction_T_min  0.0963
_exptl_absorpt_correction_T_max  0.3865
loop_
 _exptl_crystal_face_index_h
 _exptl_crystal_face_index_k
 _exptl_crystal_face_index_l
 _exptl_crystal_face_perp_dist
 ? ? ? ?

#=======================================================================

# 7. EXPERIMENTAL DATA

_exptl_special_details                   ?

_diffrn_ambient_temperature              293
_diffrn_source                           'sealed X-ray tube, 12 x 0.4 mm long-fine focus'
_diffrn_source_power                     2.00
_diffrn_source_voltage                   50
_diffrn_source_current                   40
_diffrn_radiation_type                   'Mo K\a'
_diffrn_radiation_source                 'X-ray tube'
_diffrn_radiation_wavelength             0.71073
_diffrn_radiation_monochromator          graphite
_diffrn_measurement_device               'four-circle diffractometer'
_diffrn_measurement_device_type          'IPDS Stoe'
_diffrn_detector                         'image plate (34 cm diameter)'
_diffrn_detector_area_resol_mean         6.67
_diffrn_measurement_method               'rotation method'
_diffrn_measurement_specimen_support     ?

_diffrn_reflns_number                    6096
_diffrn_reflns_theta_min                 2.86
_diffrn_reflns_theta_max                 29.21
_diffrn_reflns_theta_full                29.21
_diffrn_measured_fraction_theta_max      0.95
_diffrn_measured_fraction_theta_full     0.95
_diffrn_reflns_av_R_equivalents          0.1312
_diffrn_reflns_av_unetI/netI             0.0701
_diffrn_reflns_limit_h_min               -10
_diffrn_reflns_limit_h_max               5
_diffrn_reflns_limit_k_min               -51
_diffrn_reflns_limit_k_max               62
_diffrn_reflns_limit_l_min               -11
_diffrn_reflns_limit_l_max               10
_diffrn_reflns_reduction_process         ?

_diffrn_standards_number                 ?
_diffrn_standards_interval_count         ?
_diffrn_standards_interval_time          ?
_diffrn_standards_decay_%                ?
loop_
_diffrn_standard_refln_index_h
_diffrn_standard_refln_index_k
_diffrn_standard_refln_index_l
  ? ? ?

_diffrn_radiation_probe                  X-ray

#=======================================================================

# 8. REFINEMENT DATA

_refine_special_details
; ?
;

_reflns_number_total                     1920
_reflns_number_gt                        1269
_reflns_threshold_expression             'I>2\s(I)'

_refine_ls_structure_factor_coef         Fsqd
_refine_ls_R_factor_gt                   0.0762
_refine_ls_wR_factor_gt                  0.1384
_refine_ls_R_factor_all                  0.1124
_refine_ls_wR_factor_ref                 0.1441
_refine_ls_goodness_of_fit_ref           2.50
_refine_ls_goodness_of_fit_gt            2.99
_refine_ls_restrained_S_gt               ?
_refine_ls_restrained_S_all              ?
_refine_ls_number_reflns                 1920
_refine_ls_number_parameters             86
_refine_ls_number_restraints             6
_refine_ls_number_constraints            69
_refine_ls_weighting_scheme              sigma
_refine_ls_weighting_details             'w=1/(\s^2^(I)+0.0004I^2^)'
_refine_ls_hydrogen_treatment            'constr'
_refine_ls_shift/su_max                  0.0388
_refine_ls_shift/su_mean                 0.0030
_refine_diff_density_max                 3.76
_refine_diff_density_min                 -2.82
_refine_ls_extinction_method
 'B-C type 1 Gaussian isotropic (Becker & Coppens, 1974)'
_refine_ls_extinction_coef               1330(140)
_refine_ls_abs_structure_details
;  544 of Friedel pairs used in the refinement
;
_refine_ls_abs_structure_Flack            0.55(9)
_refine_ls_abs_structure_Rogers          ?

loop_
 _atom_type_symbol
 _atom_type_scat_dispersion_real
 _atom_type_scat_dispersion_imag
 _atom_type_scat_source
 C    0.0033  0.0016
 'International Tables Vol C tables 4.2.6.8 and 6.1.1.1'
 H    0.0000  0.0000
 'International Tables Vol C tables 4.2.6.8 and 6.1.1.1'
 Cl   0.1484  0.1585
 'International Tables Vol C tables 4.2.6.8 and 6.1.1.1'
 N    0.0061  0.0033
 'International Tables Vol C tables 4.2.6.8 and 6.1.1.1'
 Pb  -3.3944 10.1111
 'International Tables Vol C tables 4.2.6.8 and 6.1.1.1'

_computing_data_collection               ?
_computing_cell_refinement               ?
_computing_data_reduction                ?
_computing_structure_solution            ?
_computing_structure_refinement          ?
_computing_molecular_graphics            ?
_computing_publication_material          ?

loop_
 _restr_distance_atom_site_label_1
 _restr_distance_site_symmetry_1
 _restr_distance_atom_site_label_2
 _restr_distance_site_symmetry_2
 _restr_distance_target
 _restr_distance_target_weight_param
N1 . C1 . 1.5 0.001
C1 . C2 . 1.5 0.001
N2 . C3 . 1.5 0.001
C3 . C4 . 1.5 0.001

loop_
 _restr_angle_atom_site_label_1
 _restr_angle_site_symmetry_1
 _restr_angle_atom_site_label_2
 _restr_angle_site_symmetry_2
 _restr_angle_atom_site_label_3
 _restr_angle_site_symmetry_3
 _restr_angle_target
 _restr_angle_target_weight_param
N1 . C1 . C2 . 108.47 0.01
N2 . C3 . C4 . 108.47 0.01

loop_
 _restr_torsion_atom_site_label_1
 _restr_torsion_site_symmetry_1
 _restr_torsion_atom_site_label_2
 _restr_torsion_site_symmetry_2
 _restr_torsion_atom_site_label_3
 _restr_torsion_site_symmetry_3
 _restr_torsion_atom_site_label_4
 _restr_torsion_site_symmetry_4
 _restr_torsion_angle_target
 _restr_torsion_weight_param
 ? ? ? ? ? ? ? ? ? ?

loop_
 _restr_equal_distance_atom_site_label_1
 _restr_equal_distance_site_symmetry_1
 _restr_equal_distance_atom_site_label_2
 _restr_equal_distance_site_symmetry_2
 _restr_equal_distance_class_class_id
 _restr_equal_distance_class_target_weight_param
 ? ? ? ? ? ?

loop_
 _restr_equal_angle_atom_site_label_1
 _restr_equal_angle_site_symmetry_1
 _restr_equal_angle_atom_site_label_2
 _restr_equal_angle_site_symmetry_2
 _restr_equal_angle_atom_site_label_3
 _restr_equal_angle_site_symmetry_3
 _restr_equal_angle_class_class_id
 _restr_equal_angle_class_target_weight_param
 ? ? ? ? ? ? ? ?

loop_
 _restr_equal_torsion_atom_site_label_1
 _restr_equal_torsion_site_symmetry_1
 _restr_equal_torsion_atom_site_label_2
 _restr_equal_torsion_site_symmetry_2
 _restr_equal_torsion_atom_site_label_3
 _restr_equal_torsion_site_symmetry_3
 _restr_equal_torsion_atom_site_label_4
 _restr_equal_torsion_site_symmetry_4
 _restr_equal_torsion_class_class_id
 _restr_equal_torsion_class_target_weight_param
 ? ? ? ? ? ? ? ? ? ?


#=======================================================================

# 9. ATOMIC COORDINATES AND DISPLACEMENT PARAMETERS

loop_
 _atom_site_label
 _atom_site_type_symbol
 _atom_site_fract_x
 _atom_site_fract_y
 _atom_site_fract_z
 _atom_site_adp_type
 _atom_site_U_iso_or_equiv
 _atom_site_site_symmetry_multiplicity
 _atom_site_occupancy
 _atom_site_calc_flag
 _atom_site_refinement_flags
 _atom_site_disorder_assembly
 _atom_site_disorder_group
  Pb1 Pb 0.0236(3) 0.5 0.2615(3) Uani 0.0366(8) 4 1 d . . .
  Pb2 Pb -0.0043(3) 0.36569(2) 0.2509(2) Uani 0.0379(4) 8 1 d . . .
  Cl1 Cl 0.229(3) 0.3694(4) -0.006(3) Uani 0.066(5) 8 1 d . . .
  Cl2 Cl 0.238(3) 0.3518(4) 0.503(2) Uani 0.069(5) 8 1 d . . .
  Cl3 Cl 0.011(4) 0.4375(3) 0.2250(17) Uani 0.085(6) 8 1 d . . .
  Cl4 Cl 0.225(5) 0.5 -0.0393(18) Uani 0.070(11) 4 1 d . . .
  Cl5 Cl 0.012(5) 0.3093(3) 0.1842(11) Uani 0.101(9) 8 1 d . . .
  Cl6 Cl 0.310(4) 0.5 0.434(2) Uani 0.088(13) 4 1 d . . .
  N1 N 0.494(12) 0.6821(8) 0.219(6) Uiso 0.101(10) 8 1 d . . .
  C1 C 0.520(8) 0.7142(7) 0.254(7) Uiso 0.101(10) 8 1 d . . .
  C2 C 0.661(9) 0.7171(16) 0.375(6) Uiso 0.101(10) 8 1 d . . .
  N2 N 0.090(9) 0.4433(14) -0.157(6) Uiso 0.123(15) 8 1 d . . .
  C3 C 0.075(9) 0.4298(15) -0.326(5) Uiso 0.123(15) 8 1 d . . .
  C4 C -0.062(10) 0.4075(16) -0.322(7) Uiso 0.123(15) 8 1 d . . .
  H1n1 H 0.589384 0.673066 0.220947 Uiso 0.1216 8 1 d . . .
  H2n1 H 0.428517 0.674631 0.293875 Uiso 0.1216 8 1 d . . .
  H3n1 H 0.448614 0.680073 0.12185 Uiso 0.1216 8 1 d . . .
  H1c1 H 0.420369 0.722304 0.301197 Uiso 0.1216 8 1 d . . .
  H2c1 H 0.548374 0.724165 0.153416 Uiso 0.1216 8 1 d . . .
  H1c2 H 0.617899 0.715593 0.486163 Uiso 0.1216 8 1 d . . .
  H2c2 H 0.7406 0.701809 0.35663 Uiso 0.1216 8 1 d . . .
  H3c2 H 0.713258 0.735916 0.361321 Uiso 0.1216 8 1 d . . .
  H1n2 H 0.192068 0.449033 -0.141076 Uiso 0.1477 8 1 d . . .
  H2n2 H 0.023155 0.45826 -0.149842 Uiso 0.1477 8 1 d . . .
  H3n2 H 0.063283 0.430287 -0.082619 Uiso 0.1477 8 1 d . . .
  H1c3 H 0.178209 0.420326 -0.354517 Uiso 0.1477 8 1 d . . .
  H2c3 H 0.04894 0.444831 -0.4053 Uiso 0.1477 8 1 d . . .
  H1c4 H -0.11653 0.406958 -0.428338 Uiso 0.1477 8 1 d . . .
  H2c4 H -0.016552 0.388465 -0.298149 Uiso 0.1477 8 1 d . . .
  H3c4 H -0.141658 0.412729 -0.23865 Uiso 0.1477 8 1 d . . .

loop_
 _atom_site_aniso_label
 _atom_site_aniso_type_symbol
 _atom_site_aniso_U_11
 _atom_site_aniso_U_22
 _atom_site_aniso_U_33
 _atom_site_aniso_U_12
 _atom_site_aniso_U_13
 _atom_site_aniso_U_23
 Pb1 Pb 0.0377(19) 0.0359(9) 0.0361(8) 0 0.003(2) 0
 Pb2 Pb 0.0375(9) 0.0419(7) 0.0344(5) 0.0009(9) -0.0004(14) -0.0016(9)
 Cl1 Cl 0.029(11) 0.118(11) 0.052(5) 0.012(11) 0.018(7) 0.004(10)
 Cl2 Cl 0.036(10) 0.124(12) 0.047(4) -0.042(13) -0.005(6) -0.011(13)
 Cl3 Cl 0.103(14) 0.059(7) 0.092(8) -0.034(13) -0.054(13) 0.025(7)
 Cl4 Cl 0.10(3) 0.060(13) 0.047(13) 0 0.038(13) 0
 Cl5 Cl 0.20(3) 0.043(6) 0.062(5) -0.051(17) 0.006(15) 0.001(4)
 Cl6 Cl 0.11(3) 0.11(2) 0.047(9) 0 0.023(12) 0

loop_
 _jana_atom_site_ADP_C_label
 _jana_atom_site_ADP_C_type_symbol
 _jana_atom_site_ADP_C_111
 _jana_atom_site_ADP_C_112
 _jana_atom_site_ADP_C_113
 _jana_atom_site_ADP_C_122
 _jana_atom_site_ADP_C_123
 _jana_atom_site_ADP_C_133
 _jana_atom_site_ADP_C_222
 _jana_atom_site_ADP_C_223
 _jana_atom_site_ADP_C_233
 _jana_atom_site_ADP_C_333
 ? ? ? ? ? ? ? ? ? ? ? ?

loop_
 _jana_atom_site_ADP_D_label
 _jana_atom_site_ADP_D_type_symbol
 _jana_atom_site_ADP_D_1111
 _jana_atom_site_ADP_D_1112
 _jana_atom_site_ADP_D_1113
 _jana_atom_site_ADP_D_1122
 _jana_atom_site_ADP_D_1123
 _jana_atom_site_ADP_D_1133
 _jana_atom_site_ADP_D_1222
 _jana_atom_site_ADP_D_1223
 _jana_atom_site_ADP_D_1233
 _jana_atom_site_ADP_D_1333
 _jana_atom_site_ADP_D_2222
 _jana_atom_site_ADP_D_2223
 _jana_atom_site_ADP_D_2233
 _jana_atom_site_ADP_D_2333
 _jana_atom_site_ADP_D_3333
 ? ? ? ? ? ? ? ? ? ? ? ? ? ? ? ? ?

loop_
 _jana_atom_site_ADP_E_label
 _jana_atom_site_ADP_E_type_symbol
 _jana_atom_site_ADP_E_11111
 _jana_atom_site_ADP_E_11112
 _jana_atom_site_ADP_E_11113
 _jana_atom_site_ADP_E_11122
 _jana_atom_site_ADP_E_11123
 _jana_atom_site_ADP_E_11133
 _jana_atom_site_ADP_E_11222
 _jana_atom_site_ADP_E_11223
 _jana_atom_site_ADP_E_11233
 _jana_atom_site_ADP_E_11333
 _jana_atom_site_ADP_E_12222
 _jana_atom_site_ADP_E_12223
 _jana_atom_site_ADP_E_12233
 _jana_atom_site_ADP_E_12333
 _jana_atom_site_ADP_E_13333
 _jana_atom_site_ADP_E_22222
 _jana_atom_site_ADP_E_22223
 _jana_atom_site_ADP_E_22233
 _jana_atom_site_ADP_E_22333
 _jana_atom_site_ADP_E_23333
 _jana_atom_site_ADP_E_33333
 ? ? ? ? ? ? ? ? ? ? ? ? ? ? ? ? ? ? ? ? ? ? ?

loop_
 _jana_atom_site_ADP_F_label
 _jana_atom_site_ADP_F_type_symbol
 _jana_atom_site_ADP_F_111111
 _jana_atom_site_ADP_F_111112
 _jana_atom_site_ADP_F_111113
 _jana_atom_site_ADP_F_111122
 _jana_atom_site_ADP_F_111123
 _jana_atom_site_ADP_F_111133
 _jana_atom_site_ADP_F_111222
 _jana_atom_site_ADP_F_111223
 _jana_atom_site_ADP_F_111233
 _jana_atom_site_ADP_F_111333
 _jana_atom_site_ADP_F_112222
 _jana_atom_site_ADP_F_112223
 _jana_atom_site_ADP_F_112233
 _jana_atom_site_ADP_F_112333
 _jana_atom_site_ADP_F_113333
 _jana_atom_site_ADP_F_122222
 _jana_atom_site_ADP_F_122223
 _jana_atom_site_ADP_F_122233
 _jana_atom_site_ADP_F_122333
 _jana_atom_site_ADP_F_123333
 _jana_atom_site_ADP_F_133333
 _jana_atom_site_ADP_F_222222
 _jana_atom_site_ADP_F_222223
 _jana_atom_site_ADP_F_222233
 _jana_atom_site_ADP_F_222333
 _jana_atom_site_ADP_F_223333
 _jana_atom_site_ADP_F_233333
 _jana_atom_site_ADP_F_333333
 ? ? ? ? ? ? ? ? ? ? ? ? ? ? ? ? ? ? ? ? ? ? ? ? ? ? ? ? ? ?


#=======================================================================

# 10. MOLECULAR GEOMETRY


loop_
 _geom_bond_atom_site_label_1
 _geom_bond_atom_site_label_2
 _geom_bond_site_symmetry_1
 _geom_bond_site_symmetry_2
 _geom_bond_distance
 _geom_bond_publ_flag
  Pb1 Cl3 . . 2.859(12) ?
  Pb1 Cl3 . 4_565 2.859(12) ?
  Pb1 Cl4 . . 2.92(3) ?
  Pb1 Cl4 . 2_465 2.99(3) ?
  Pb1 Cl6 . . 2.69(3) ?
  Pb1 Cl6 . 2_466 3.00(3) ?
  Pb2 Cl1 . . 2.80(3) ?
  Pb2 Cl1 . 3_455 2.92(3) ?
  Pb2 Cl2 . . 2.88(2) ?
  Pb2 Cl2 . 3_456 2.94(2) ?
  Pb2 Cl3 . . 3.278(12) ?
  Pb2 Cl5 . . 2.625(13) ?
  Cl1 N1 . 2_465 3.47(7) ?
  Cl1 N1 . 4_565 3.65(7) ?
  Cl1 N2 . . 3.75(7) ?
  Cl2 N1 . 2_466 3.36(7) ?
  Cl2 N1 . 4_565 3.44(7) ?
  Cl3 N2 . . 3.16(6) ?
  Cl3 N2 . 3_455 3.43(8) ?
  Cl4 N2 . . 2.96(7) ?
  Cl4 N2 . 4_565 2.96(7) ?
  Cl5 N1 . 2_465 3.28(6) ?
  Cl5 N1 . 4_565 3.89(10) ?
  N1 C1 . . 1.50(5) ?
  N1 H1n1 . . 0.87 ?
  N1 H2n1 . . 0.87 ?
  N1 H3n1 . . 0.87 ?
  C1 C2 . . 1.50(9) ?
  C1 H1c1 . . 0.96 ?
  C1 H2c1 . . 0.96 ?
  C2 H1c2 . . 0.96 ?
  C2 H2c2 . . 0.96 ?
  C2 H3c2 . . 0.96 ?
  N2 C3 . . 1.50(7) ?
  N2 H1n2 . . 0.87 ?
  N2 H2n2 . . 0.87 ?
  N2 H3n2 . . 0.87 ?
  C3 C4 . . 1.50(11) ?
  C3 H1c3 . . 0.96 ?
  C3 H2c3 . . 0.96 ?
  C4 H1c4 . . 0.96 ?
  C4 H2c4 . . 0.96 ?
  C4 H3c4 . . 0.96 ?

loop_
 _geom_angle_atom_site_label_1
 _geom_angle_atom_site_label_2
 _geom_angle_atom_site_label_3
 _geom_angle_site_symmetry_1
 _geom_angle_site_symmetry_2
 _geom_angle_site_symmetry_3
 _geom_angle
 _geom_angle_publ_flag
  Cl3 Pb1 Cl3 . . 4_565 167.5(5) ?
  Cl3 Pb1 Cl4 . . . 86.2(5) ?
  Cl3 Pb1 Cl4 . . 2_465 84.8(6) ?
  Cl3 Pb1 Cl6 . . . 94.8(6) ?
  Cl3 Pb1 Cl6 . . 2_466 93.7(5) ?
  Cl3 Pb1 Cl4 4_565 . . 86.2(5) ?
  Cl3 Pb1 Cl4 4_565 . 2_465 84.8(6) ?
  Cl3 Pb1 Cl6 4_565 . . 94.8(6) ?
  Cl3 Pb1 Cl6 4_565 . 2_466 93.7(5) ?
  Cl4 Pb1 Cl4 . . 2_465 86.8(9) ?
  Cl4 Pb1 Cl6 . . . 87.6(8) ?
  Cl4 Pb1 Cl6 . . 2_466 178.8(9) ?
  Cl4 Pb1 Cl6 2_465 . . 174.4(7) ?
  Cl4 Pb1 Cl6 2_465 . 2_466 92.0(8) ?
  Cl6 Pb1 Cl6 . . 2_466 93.6(8) ?
  Cl1 Pb2 Cl1 . . 3_455 89.1(7) ?
  Cl1 Pb2 Cl2 . . . 94.9(7) ?
  Cl1 Pb2 Cl2 . . 3_456 170.2(5) ?
  Cl1 Pb2 Cl3 . . . 82.4(6) ?
  Cl1 Pb2 Cl5 . . . 82.7(7) ?
  Cl1 Pb2 Cl2 3_455 . . 170.0(5) ?
  Cl1 Pb2 Cl2 3_455 . 3_456 87.5(6) ?
  Cl1 Pb2 Cl3 3_455 . . 85.8(6) ?
  Cl1 Pb2 Cl5 3_455 . . 87.4(8) ?
  Cl2 Pb2 Cl2 . . 3_456 87.1(6) ?
  Cl2 Pb2 Cl3 . . . 103.8(6) ?
  Cl2 Pb2 Cl5 . . . 84.0(7) ?
  Cl2 Pb2 Cl3 3_456 . . 106.5(6) ?
  Cl2 Pb2 Cl5 3_456 . . 88.0(8) ?
  Cl3 Pb2 Cl5 . . . 163.7(5) ?
  Pb2 Cl1 Pb2 . . 3_555 171.5(8) ?
  Pb2 Cl1 N1 . . 2_465 88.0(13) ?
  Pb2 Cl1 N1 . . 4_565 89.0(13) ?
  Pb2 Cl1 N2 . . . 95.6(11) ?
  Pb2 Cl1 N1 3_555 . 2_465 91.3(14) ?
  Pb2 Cl1 N1 3_555 . 4_565 82.7(13) ?
  Pb2 Cl1 N2 3_555 . . 92.8(11) ?
  N1 Cl1 N1 2_465 . 4_565 97.5(14) ?
  N1 Cl1 N2 2_465 . . 106.4(15) ?
  N1 Cl1 N2 4_565 . . 155.8(16) ?
  Pb2 Cl2 Pb2 . . 3_556 154.8(6) ?
  Pb2 Cl2 N1 . . 2_466 100.3(15) ?
  Pb2 Cl2 N1 . . 4_565 91.8(13) ?
  Pb2 Cl2 N1 3_556 . 2_466 93.2(14) ?
  Pb2 Cl2 N1 3_556 . 4_565 97.4(15) ?
  N1 Cl2 N1 2_466 . 4_565 126.0(12) ?
  Pb1 Cl3 Pb2 . . . 170.4(5) ?
  Pb1 Cl3 N2 . . . 90.7(12) ?
  Pb1 Cl3 N2 . . 3_455 88.6(12) ?
  Pb2 Cl3 N2 . . . 98.7(12) ?
  Pb2 Cl3 N2 . . 3_455 92.8(12) ?
  N2 Cl3 N2 . . 3_455 92.0(17) ?
  Pb1 Cl4 Pb1 . . 2_565 160.5(11) ?
  Pb1 Cl4 N2 . . . 93.7(14) ?
  Pb1 Cl4 N2 . . 4_565 93.7(14) ?
  Pb1 Cl4 N2 2_565 . . 95.8(14) ?
  Pb1 Cl4 N2 2_565 . 4_565 95.8(14) ?
  N2 Cl4 N2 . . 4_565 122(2) ?
  Pb2 Cl5 N1 . . 2_465 94.9(7) ?
  Pb2 Cl5 N1 . . 4_565 86.4(11) ?
  N1 Cl5 N1 2_465 . 4_565 96(2) ?
  Pb1 Cl6 Pb1 . . 2_566 156.1(10) ?
  Cl1 N1 Cl1 2_565 . 4_565 68.6(9) ?
  Cl1 N1 Cl2 2_565 . 2_566 72.8(15) ?
  Cl1 N1 Cl2 2_565 . 4_565 110.6(11) ?
  Cl1 N1 Cl5 2_565 . 2_565 64.1(12) ?
  Cl1 N1 Cl5 2_565 . 4_565 124.9(18) ?
  Cl1 N1 C1 2_565 . . 132(5) ?
  Cl1 N1 H1n1 2_565 . . 37.81 ?
  Cl1 N1 H2n1 2_565 . . 114.11 ?
  Cl1 N1 H3n1 2_565 . . 72.92 ?
  Cl1 N1 Cl2 4_565 . 2_566 112.2(11) ?
  Cl1 N1 Cl2 4_565 . 4_565 72.3(15) ?
  Cl1 N1 Cl5 4_565 . 2_565 67.0(12) ?
  Cl1 N1 Cl5 4_565 . 4_565 56.6(13) ?
  Cl1 N1 C1 4_565 . . 143(5) ?
  Cl1 N1 H1n1 4_565 . . 102.61 ?
  Cl1 N1 H2n1 4_565 . . 75.1 ?
  Cl1 N1 H3n1 4_565 . . 40.43 ?
  Cl2 N1 Cl2 2_566 . 4_565 72.3(11) ?
  Cl2 N1 Cl5 2_566 . 2_565 134(3) ?
  Cl2 N1 Cl5 2_566 . 4_565 132.3(19) ?
  Cl2 N1 C1 2_566 . . 104(4) ?
  Cl2 N1 H1n1 2_566 . . 41.99 ?
  Cl2 N1 H2n1 2_566 . . 72.94 ?
  Cl2 N1 H3n1 2_566 . . 143.03 ?
  Cl2 N1 Cl5 4_565 . 2_565 138(3) ?
  Cl2 N1 Cl5 4_565 . 4_565 60.1(15) ?
  Cl2 N1 C1 4_565 . . 113(4) ?
  Cl2 N1 H1n1 4_565 . . 107.54 ?
  Cl2 N1 H2n1 4_565 . . 3.68 ?
  Cl2 N1 H3n1 4_565 . . 107.67 ?
  Cl5 N1 Cl5 2_565 . 4_565 87.8(19) ?
  Cl5 N1 C1 2_565 . . 94(3) ?
  Cl5 N1 H1n1 2_565 . . 91.98 ?
  Cl5 N1 H2n1 2_565 . . 139.73 ?
  Cl5 N1 H3n1 2_565 . . 30.29 ?
  Cl5 N1 C1 4_565 . . 93(4) ?
  Cl5 N1 H1n1 4_565 . . 157.33 ?
  Cl5 N1 H2n1 4_565 . . 59.41 ?
  Cl5 N1 H3n1 4_565 . . 62.03 ?
  C1 N1 H1n1 . . . 109.47 ?
  C1 N1 H2n1 . . . 109.47 ?
  C1 N1 H3n1 . . . 109.47 ?
  H1n1 N1 H2n1 . . . 109.47 ?
  H1n1 N1 H3n1 . . . 109.47 ?
  H2n1 N1 H3n1 . . . 109.47 ?
  N1 C1 C2 . . . 108(5) ?
  N1 C1 H1c1 . . . 109.47 ?
  N1 C1 H2c1 . . . 109.47 ?
  C2 C1 H1c1 . . . 109.47 ?
  C2 C1 H2c1 . . . 109.47 ?
  H1c1 C1 H2c1 . . . 110.45 ?
  C1 C2 H1c2 . . . 109.47 ?
  C1 C2 H2c2 . . . 109.47 ?
  C1 C2 H3c2 . . . 109.47 ?
  H1c2 C2 H2c2 . . . 109.47 ?
  H1c2 C2 H3c2 . . . 109.47 ?
  H2c2 C2 H3c2 . . . 109.47 ?
  Cl1 N2 Cl3 . . . 70.6(12) ?
  Cl1 N2 Cl3 . . 3_555 72.0(14) ?
  Cl1 N2 Cl4 . . . 125(2) ?
  Cl1 N2 C3 . . . 87(4) ?
  Cl1 N2 H1n2 . . . 86.7 ?
  Cl1 N2 H2n2 . . . 149.87 ?
  Cl1 N2 H3n2 . . . 40.41 ?
  Cl3 N2 Cl3 . . 3_555 110.3(19) ?
  Cl3 N2 Cl4 . . . 80.3(14) ?
  Cl3 N2 C3 . . . 147(4) ?
  Cl3 N2 H1n2 . . . 93.89 ?
  Cl3 N2 H2n2 . . . 82.8 ?
  Cl3 N2 H3n2 . . . 38.65 ?
  Cl3 N2 Cl4 3_555 . . 75.9(18) ?
  Cl3 N2 C3 3_555 . . 84(4) ?
  Cl3 N2 H1n2 3_555 . . 28.36 ?
  Cl3 N2 H2n2 3_555 . . 132.62 ?
  Cl3 N2 H3n2 3_555 . . 107.54 ?
  Cl4 N2 C3 . . . 133(4) ?
  Cl4 N2 H1n2 . . . 48.95 ?
  Cl4 N2 H2n2 . . . 61.26 ?
  Cl4 N2 H3n2 . . . 117.36 ?
  C3 N2 H1n2 . . . 109.47 ?
  C3 N2 H2n2 . . . 109.47 ?
  C3 N2 H3n2 . . . 109.47 ?
  H1n2 N2 H2n2 . . . 109.47 ?
  H1n2 N2 H3n2 . . . 109.47 ?
  H2n2 N2 H3n2 . . . 109.47 ?
  N2 C3 C4 . . . 108(5) ?
  N2 C3 H1c3 . . . 109.47 ?
  N2 C3 H2c3 . . . 109.47 ?
  C4 C3 H1c3 . . . 109.47 ?
  C4 C3 H2c3 . . . 109.47 ?
  H1c3 C3 H2c3 . . . 110.45 ?
  C3 C4 H1c4 . . . 109.47 ?
  C3 C4 H2c4 . . . 109.47 ?
  C3 C4 H3c4 . . . 109.47 ?
  H1c4 C4 H2c4 . . . 109.47 ?
  H1c4 C4 H3c4 . . . 109.47 ?
  H2c4 C4 H3c4 . . . 109.47 ?

loop_
 _geom_torsion_atom_site_label_1
 _geom_torsion_atom_site_label_2
 _geom_torsion_atom_site_label_3
 _geom_torsion_atom_site_label_4
 _geom_torsion_site_symmetry_1
 _geom_torsion_site_symmetry_2
 _geom_torsion_site_symmetry_3
 _geom_torsion_site_symmetry_4
 _geom_torsion
 _geom_torsion_publ_flag
 ? ? ? ? ? ? ? ? ? ?

loop_
 _geom_hbond_atom_site_label_D
 _geom_hbond_atom_site_label_H
 _geom_hbond_atom_site_label_A
 _geom_hbond_site_symmetry_D
 _geom_hbond_site_symmetry_H
 _geom_hbond_site_symmetry_A
 _geom_hbond_distance_DH
 _geom_hbond_distance_HA
 _geom_hbond_distance_DA
 _geom_hbond_angle_DHA
 _geom_hbond_publ_flag
 ? ? ? ? ? ? ? ? ? ? ?


#=======================================================================

# 11. STRUCTURE-FACTOR LIST

loop_
 _refln_index_h
 _refln_index_k
 _refln_index_l
 _refln_F_squared_calc
 _refln_F_squared_meas
 _refln_F_squared_sigma
 _refln_observed_status
  -2  12   0   24140.   24552.    1545. o
  -2  14   0  201226.  283603.    1966. o
  -2  16   0  335516.  478414.    1117. o
  -2  18   0   28913.   35538.    3535. o
  -2  20   0    2937.   14914.    3452. o
  -4  20   0   14661.   13098.    1365. o
  -4  22   0  198561.  281611.    5384. o
  -4  24   0   21185.   37929.    2537. o
  -6  24   0   12317.    8064.    1203. o
  -2  26   0   44351.   45795.    1905. o
  -4  26   0   39740.   64519.    3964. o
  -6  26   0   31127.   42026.    1602. o
  -8  26   0   18511.   10336.    1626. o
   2  28   0   22419.   20254.    2138. o
  -2  28   0   22612.   19714.    1739. o
  -6  28   0   12876.   16801.    2192. o
  -8  28   0    2702.    2126.    1276. <
   2  30   0  180744.  182653.    3306. o
  -2  30   0  181389.  171069.    2464. o
  -4  30   0  124360.  128470.    1841. o
  -6  30   0   57565.  134831.    4049. o
  -8  30   0   14965.    9931.    1441. o
   2  32   0   12180.   10846.    2391. o
  -2  32   0   12043.    6185.    1887. o
  -4  32   0   15744.   11992.    1781. o
  -6  32   0    5802.    6806.    1547. o
   2  34   0   18311.   17950.    2509. o
  -2  34   0   18516.   17753.    1813. o
  -4  34   0   12629.   11469.    1669. o
  -6  34   0   14082.   14898.    1795. o
   2  36   0   63048.   71734.    2930. o
  -2  36   0   63215.   65861.    1794. o
  -4  36   0   35736.   34670.    1677. o
  -6  36   0   20290.   19565.    1776. o
   2  38   0   63508.   68779.    2760. o
  -2  38   0   63214.   70196.    1661. o
  -4  38   0   51068.   49774.    1742. o
  -6  38   0   21217.   23917.    1789. o
   2  40   0   12456.   12366.    2495. o
  -2  40   0   12657.   14592.    1461. o
  -4  40   0    6920.    6476.    1572. o
  -6  40   0    9158.   10211.    1712. o
   2  42   0    1964.     602.    2103. <
  -2  42   0    1939.    1370.    1642. <
  -4  42   0    3989.    6474.    1521. o
  -6  42   0    4974.    6368.    1712. o
   0  44   0   53894.   57236.    1752. o
   2  44   0   42876.   25866.    2338. o
  -2  44   0   42770.   43075.    1776. o
  -4  44   0   28324.   28644.    1644. o
   0  46   0   38102.   41008.    1903. o
   2  46   0   21201.     142.    2183. <
  -2  46   0   21406.   17310.    1692. o
  -4  46   0   19219.   18061.    1577. o
   0  48   0     346.     154.    1760. <
  -2  48   0    2192.    2965.    1618. <
  -4  48   0    2559.    2386.    1477. <
   0  50   0    1677.    1843.    1890. <
  -2  50   0    1377.    2067.    1594. <
   0  52   0   43390.   48356.    1887. o
  -2  52   0   32437.   35267.    1713. o
   0  54   0    3441.    6686.    1769. o
   1   1   1  447723.  398368.    5877. o
  -1   1   1  445623.  366414.    5901. o
  -2   1   1    5253.    -509.    2615. <
  -8   1   1     305.    1429.    2102. <
  -9   1   1   13182.   12011.    2201. o
   0   3   1      18.     720.    1996. <
   1   3   1   34681.   29642.    2530. o
  -1   3   1   34548.   29323.    2302. o
  -2   3   1    9660.    4004.    2432. <
  -8   3   1     223.    2468.    1995. <
  -9   3   1   16083.   20610.    2034. o
   0   5   1    1150.     733.    1584. <
   1   5   1    1703.     875.    2411. <
  -1   5   1    1673.     437.    1395. <
  -2   5   1    6049.   11667.    2503. o
  -8   5   1      62.    4346.    2041. o
  -9   5   1    8012.   11616.    1945. o
   0   7   1     901.    2918.    1701. <
   1   7   1  616250.  627499.    6543. o
  -1   7   1  621692.  574066.    5367. o
  -2   7   1    5151.    5630.    2105. o
  -8   7   1     372.     626.    1807. <
  -9   7   1   17627.   20411.    1968. o
   0   9   1      35.     579.    1712. <
   1   9   1   97289.  113237.    3576. o
  -1   9   1   98026.   84199.    2417. o
  -2   9   1   18562.   15977.    2260. o
  -3   9   1   88345.   79687.    2580. o
  -8   9   1    1341.    2858.    1866. <
  -9   9   1    4783.    3816.    1903. o
   0  11   1      85.     366.    1653. <
   1  11   1   76752.   59779.    3455. o
  -1  11   1   75779.   64671.    2220. o
  -2  11   1    1018.    5871.    1319. o
  -3  11   1   82175.   73330.    2265. o
  -7  11   1   42949.   39926.    2621. o
  -8  11   1      20.    1949.    1806. <
  -9  11   1   20110.   23017.    1848. o
   0  13   1   34154.   37580.    1856. o
   1  13   1   30784.   28723.    2996. o
  -1  13   1   30773.   30092.    1933. o
  -2  13   1    1358.    5741.    1414. o
  -3  13   1   43249.   40696.    2073. o
  -4  13   1    4801.   12681.    2959. o
  -7  13   1   11258.   11633.    1773. o
  -8  13   1     799.    1087.    1712. <
  -9  13   1    3837.    1725.    1785. <
   0  15   1    9076.    7518.    1707. o
  -1  15   1  700936.  741768.   14825. o
  -2  15   1    4604.    2861.    1349. o
  -3  15   1  465509.  437858.    3908. o
  -4  15   1    4046.    1418.    1903. <
  -5  15   1  189430.  192812.    4057. o
  -6  15   1    1955.    2067.    1689. <
  -7  15   1   71508.   81414.    1689. o
  -8  15   1     511.    1583.    1641. <
  -9  15   1   18725.   21004.    1708. o
   0  17   1   14142.   15986.    1939. o
  -1  17   1   33432.   27436.    1659. o
  -2  17   1    7686.    5724.    1268. o
  -3  17   1   28403.   31496.    1068. o
  -4  17   1    6452.     485.    1752. <
  -5  17   1   15784.   13168.    1804. o
  -6  17   1    2829.    1843.    1713. <
  -7  17   1   10378.   10319.    1619. o
  -8  17   1    1353.    1677.    1453. <
  -9  17   1    4534.    5304.    1653. o
   0  19   1   13561.   10470.    1770. o
   1  19   1   51606.   50885.    4000. o
  -1  19   1   51855.   43030.    1689. o
  -2  19   1    1464.    5174.    1320. o
  -3  19   1   37897.   40733.    1320. o
  -4  19   1    3471.    9204.    1267. o
  -5  19   1   38975.   34015.    1818. o
  -6  19   1     574.    3921.    1605. o
  -7  19   1   26689.   27179.    1738. o
  -8  19   1     510.    1157.    1535. <
   0  21   1     194.    1701.    1570. <
   1  21   1  184828.  198774.    4587. o
  -1  21   1  185270.  194868.    1786. o
  -2  21   1    1359.    6355.    1271. o
  -3  21   1  122220.  131109.    1356. o
  -4  21   1     655.    5468.     975. o
  -5  21   1   49326.   44794.    1371. o
  -6  21   1     327.    1618.    1570. <
  -7  21   1   19119.   20441.    1593. o
  -8  21   1     161.     165.    1606. <
   0  23   1    1207.    2740.    1559. <
   1  23   1  165240.  169314.    4087. o
  -1  23   1  165055.  165382.    1900. o
  -2  23   1   14517.   12298.    1320. o
  -3  23   1  146812.  148046.    1622. o
  -4  23   1    5594.    1371.    1173. <
  -5  23   1   72422.   64059.    1320. o
  -6  23   1    3632.     662.    1159. <
  -7  23   1   32266.   23553.    1246. o
  -8  23   1    1675.    1902.    1488. <
   0  25   1       3.    2090.    2232. <
   1  25   1    5327.    5638.    2801. o
  -1  25   1    5306.    6595.    1334. o
  -2  25   1    1620.    1488.    1252. <
  -3  25   1   15407.   14272.    1305. o
  -4  25   1    1395.    1937.    1169. <
  -5  25   1   17484.   18234.    1216. o
  -6  25   1     264.    -189.     945. <
  -7  25   1   12934.   10061.    1213. o
  -8  25   1     330.     803.    1122. <
   0  27   1    3690.    6074.    2043. o
   1  27   1    5107.    5708.    2682. o
  -1  27   1    5119.    7599.    1308. o
   2  27   1    2932.    6840.    1698. o
  -2  27   1    2952.    7809.    1436. o
  -3  27   1   10323.   14261.    1350. o
  -4  27   1    1249.    3945.    1274. o
  -5  27   1   16422.   16112.    1243. o
  -6  27   1    1146.    1287.    1134. <
  -7  27   1   12635.   11231.    1021. o
  -8  27   1     614.    1559.     944. <
   0  29   1      91.    2079.    1960. <
   1  29   1  150273.  154835.    3393. o
  -1  29   1  150391.  158582.    2007. o
   2  29   1    2544.    1477.    1997. <
  -2  29   1    2530.    2953.    1287. o
  -3  29   1  114147.  126327.    1462. o
  -4  29   1     372.     685.    1216. <
  -5  29   1   57585.   65156.    1359. o
  -6  29   1     541.     142.    1193. <
  -7  29   1   24170.   12673.    1305. o
  -8  29   1      73.     -83.    1098. <
   0  31   1    3626.    4998.    1925. o
   1  31   1  144403.  177108.    2850. o
  -1  31   1  144551.  150180.    2085. o
   2  31   1    2492.    2552.    2091. <
  -2  31   1    2466.    1843.    1323. <
  -3  31   1  102148.  111590.    1474. o
  -4  31   1    2495.    1146.    1359. <
  -5  31   1   44975.   48401.    1501. o
  -6  31   1    1444.    1311.    1264. <
  -7  31   1   17082.   14451.    1380. o
   0  33   1     558.    1122.    1807. <
   1  33   1   10800.    8596.    2237. o
  -1  33   1   10850.    8266.    1294. o
   2  33   1      55.     118.    2480. <
  -2  33   1      56.    1819.    1476. <
  -3  33   1   10817.   14672.    1457. o
  -4  33   1     340.    -779.    1618. <
  -5  33   1   13937.   16814.    1446. o
  -6  33   1     108.    1996.    1488. <
  -7  33   1   11251.   13037.    1497. o
   0  35   1     719.    2539.    1877. <
   1  35   1    4209.    5695.    2303. o
  -1  35   1    4220.    4513.    1229. o
   2  35   1      70.    2645.    2633. <
  -2  35   1      65.     803.    1453. <
  -3  35   1    5385.    5116.    1524. o
  -4  35   1     392.    3059.    1534. <
  -5  35   1    4456.    6049.    1747. o
  -6  35   1     231.     685.    1783. <
  -7  35   1    3238.    5611.    1806. o
   0  37   1     699.    1783.    1783. <
   1  37   1  136269.  157221.    2754. o
  -1  37   1  136012.  135019.    1427. o
   2  37   1     673.    -343.    2610. <
  -2  37   1     664.      12.    1075. <
  -3  37   1  101078.   91745.    2095. o
  -4  37   1     904.    1063.    1205. <
  -5  37   1   48664.   54106.    1687. o
  -6  37   1     387.      47.    1677. <
  -7  37   1   19465.   22967.    1810. o
   0  39   1      32.     248.    1771. <
   1  39   1    6711.    5578.    1644. o
  -1  39   1    6702.    5401.    1172. o
   2  39   1    1156.     768.    2398. <
  -2  39   1    1147.    1157.    1110. <
  -3  39   1    6265.    7397.    1085. o
  -4  39   1     752.     413.    1465. <
  -5  39   1    3945.    8033.    1555. o
  -6  39   1      78.    1394.    1653. <
   0  41   1     196.    -236.    1748. <
   1  41   1   10698.   10604.    1572. o
  -1  41   1   10688.    8251.    1423. o
   2  41   1       3.     838.    1996. <
  -2  41   1       3.     968.    1098. <
  -3  41   1   12955.   11681.    1080. o
  -4  41   1      72.     472.    1086. <
  -5  41   1   13737.   12816.    1161. o
  -6  41   1      87.     898.    1086. <
   0  43   1       3.    -201.    1878. <
   1  43   1   15076.   16142.    1594. o
  -1  43   1   15065.   15906.    1417. o
   2  43   1     122.    3413.    2137. <
  -2  43   1     122.     189.    1157. <
  -3  43   1   11476.   11419.    1076. o
  -4  43   1      97.     -12.    1086. <
  -5  43   1    5944.    5577.    1147. o
   0  45   1       3.    1323.    1677. <
   1  45   1   53743.   62193.    1641. o
  -1  45   1   53824.   47758.    1790. o
   2  45   1     634.    1772.    1842. <
  -2  45   1     627.     -24.    1004. <
  -3  45   1   41558.   42260.    1131. o
  -4  45   1     151.    1275.    1063. <
  -5  45   1   22370.   25564.    1153. o
   0  47   1     136.    -378.    1701. <
   1  47   1    3957.    7100.    1532. o
  -1  47   1    3926.    4702.    1594. o
   2  47   1      26.     272.    1760. <
  -2  47   1      25.    -354.    1051. <
  -3  47   1    4341.    4678.    1027. o
  -4  47   1      45.     331.    1063. <
   0  49   1      26.     921.    1700. <
   1  49   1    1481.    2610.    1594. <
  -1  49   1    1492.    3839.    1558. o
   2  49   1      98.    -319.    1807. <
  -2  49   1      98.    1075.    1074. <
  -3  49   1    2048.    1524.    1028. <
  -4  49   1      37.     638.    1051. <
   0  51   1      11.     756.    1712. <
   1  51   1   19707.   24152.    1640. o
  -1  51   1   19719.   17647.    1650. o
   2  51   1     163.     709.    1748. <
  -2  51   1     160.    1157.    1145. <
  -3  51   1   15058.   14282.    1161. o
   0  53   1      21.    2173.    1889. <
   1  53   1   22641.   25848.    1703. o
  -1  53   1   22585.   23115.    1619. o
  -2  53   1      23.     331.    1157. <
   0   0   2  720127.  648477.    6029. o
   1   0   2    7989.    5115.    2263. o
  -1   0   2    8115.    4928.    1590. o
   2   0   2 1409340. 1642630.   31438. o
  -2   0   2 1405240. 1574080.   30331. o
  -3   0   2     147.    5928.    2206. o
  -4   0   2  258800.  265929.    3423. o
  -5   0   2     114.    1205.    2315. <
  -6   0   2  197263.  209743.    3169. o
  -7   0   2     103.     248.    2527. <
  -8   0   2   36815.   35682.    2718. o
  -9   0   2      48.    1323.    2468. <
   0   2   2   23096.   20648.     886. o
   1   2   2   16368.    9818.    1675. o
  -1   2   2   16561.    8447.    1033. o
   2   2   2   45493.   44723.    2335. o
  -2   2   2   45706.   47928.    1585. o
  -3   2   2     545.    4866.    1556. o
  -4   2   2   23155.   23993.    1728. o
  -5   2   2     283.     968.    1701. <
  -6   2   2   13944.   16182.    1876. o
  -7   2   2     269.     650.    1736. <
  -8   2   2    6854.   11674.    1765. o
  -9   2   2      46.    1063.    1748. <
   0   4   2   23560.   22037.    1010. o
   1   4   2    2428.    2884.    1489. <
  -1   4   2    2470.    3180.     933. o
   2   4   2  144458.  154806.    2772. o
  -2   4   2  144168.  151995.    2073. o
  -3   4   2    2723.    2741.    1512. <
  -4   4   2   24338.   24551.    1849. o
  -5   4   2     535.     839.    1724. <
  -6   4   2   89643.   90060.    2190. o
  -7   4   2     223.    1594.    1889. <
  -8   4   2   14519.   20078.    1818. o
  -9   4   2     143.     425.    1748. <
   0   6   2   59048.   54932.    1244. o
   1   6   2    7727.    6025.    1446. o
  -1   6   2    7832.    8466.    1064. o
   2   6   2  272377.  261762.    3542. o
  -2   6   2  271392.  265534.    2672. o
  -3   6   2    1342.    7902.    1422. o
  -4   6   2   52037.   50774.    1856. o
  -5   6   2     526.     449.    1713. <
  -6   6   2   44845.   41826.    2058. o
  -7   6   2     582.    1193.    1819. <
  -8   6   2   10371.   12424.    1829. o
  -9   6   2      60.    2362.    1877. <
   0   8   2   98630.   91717.    1610. o
   1   8   2   16610.   19850.    1209. o
  -1   8   2   16734.   18385.    1109. o
   2   8   2  437177.  427658.    4257. o
  -2   8   2  433819.  395030.    3599. o
  -3   8   2    5975.    8276.    1593. o
  -4   8   2  119654.  119584.    2157. o
  -5   8   2    2341.    3249.    1760. <
  -6   8   2  104990.  114235.    1992. o
  -7   8   2     762.     827.    1831. <
  -8   8   2   28163.   31826.    1819. o
  -9   8   2      66.    -921.    1889. <
   0  10   2    1572.     685.    1359. <
   1  10   2    3781.    3688.    1088. o
  -1  10   2    3865.    4304.    1347. o
   2  10   2   15802.   16994.    2380. o
  -2  10   2   15938.   14960.    1094. o
  -3  10   2     619.     106.    1606. <
  -4  10   2    8345.    8228.    1596. o
  -5  10   2     843.     874.    1476. <
  -6  10   2   33138.   33333.    1777. o
  -7  10   2     409.    2173.    1688. <
  -8  10   2    6848.   11875.    1741. o
  -9  10   2     117.     472.    1783. <
   0  12   2   21688.   24811.    1495. o
   1  12   2    3517.    3085.    1170. o
  -1  12   2    3608.    4315.    1193. o
   2  12   2   32047.   31632.    2451. o
  -2  12   2   31974.   30010.    1226. o
  -3  12   2    1114.    2870.    1086. o
  -4  12   2   21024.   15877.    1615. o
  -5  12   2     405.    -248.    1571. <
  -6  12   2   38727.   30914.    1852. o
  -7  12   2     531.     992.    1594. <
  -8  12   2   12832.   16800.    1669. o
  -9  12   2     115.    2539.    1605. <
   0  14   2  201563.  223976.    1396. o
   1  14   2     656.    1854.    1110. <
  -1  14   2     692.    2658.    1381. <
   2  14   2  452306.  390131.    5691. o
  -2  14   2  452064.  459526.    2074. o
  -3  14   2    2633.    1678.    1028. <
  -4  14   2  122674.  114437.    2088. o
  -5  14   2     302.    1110.    1488. <
  -6  14   2   84977.   91895.    1704. o
  -7  14   2     120.     898.    1512. <
  -8  14   2   21701.   23298.    1663. o
  -9  14   2      27.   -1665.    1629. <
   0  16   2  308153.  343718.    6847. o
   1  16   2    3037.     165.    1123. <
  -1  16   2    3125.     685.    1348. <
   2  16   2  349121.  304999.    5072. o
  -2  16   2  349245.  402969.    7677. o
  -3  16   2    1245.    1465.     992. <
  -4  16   2  142951.  123356.    1792. o
  -5  16   2      35.     201.    1275. <
  -6  16   2   54334.   57753.    1691. o
  -7  16   2     105.     697.    1464. <
  -8  16   2   21419.   23791.    1433. o
   0  18   2   17918.   15313.    1466. o
   1  18   2    6047.    6207.    1359. o
  -1  18   2    6080.    5817.    1396. o
  -2  18   2   35153.   35427.    1364. o
  -3  18   2    2370.    3568.    1157. o
  -4  18   2   18122.   14644.    1044. o
  -5  18   2     417.     461.     968. <
  -6  18   2   38049.   33925.    1589. o
  -7  18   2     143.    1086.    1500. <
  -8  18   2   11556.   12105.    1571. o
   0  20   2      73.    6129.    1424. o
   1  20   2    2423.    1051.    1465. <
  -1  20   2    2492.     118.    1430. <
   2  20   2   11702.   11703.    1538. o
  -2  20   2   11558.   15285.    1255. o
  -3  20   2     244.    2539.    1133. o
  -4  20   2    7788.    6490.    1125. o
  -5  20   2     161.     437.     898. <
  -6  20   2    8573.    6701.    1044. o
  -7  20   2     211.     838.    1441. <
  -8  20   2    6270.    8767.    1533. o
   0  22   2  242842.  260681.    1504. o
   1  22   2    4220.    2612.    1490. <
  -1  22   2    4306.    3439.    1383. o
   2  22   2  317400.  314152.    2934. o
  -2  22   2  315724.  338528.    6759. o
  -3  22   2    1218.    2728.    1133. o
  -4  22   2  135686.  133772.    1464. o
  -5  22   2    1189.     803.     992. <
  -6  22   2   66484.   63488.    1277. o
  -7  22   2     301.     213.    1087. <
  -8  22   2   25839.   25467.    1540. o
   0  24   2   17587.   19552.    1474. o
   1  24   2    5063.    7670.    1498. o
  -1  24   2    5088.    5614.    1276. o
  -2  24   2   30420.   36442.    1311. o
  -3  24   2    2475.    3556.    1050. o
  -4  24   2   17687.   22036.    1151. o
  -5  24   2    1182.     272.    1063. <
  -6  24   2   10789.    9339.    1068. o
  -7  24   2     397.    1819.    1062. <
  -8  24   2    4456.    6415.    1534. o
   0  26   2   41750.   45104.    1495. o
   1  26   2     423.    1913.    1511. <
  -1  26   2     446.     685.    1228. <
   2  26   2   30682.   29248.    1892. o
  -2  26   2   30444.   30554.    1268. o
  -3  26   2      98.     874.    1145. <
  -4  26   2   36519.   40298.    1128. o
  -5  26   2      74.    1394.    1086. <
  -6  26   2   29181.   33495.    1140. o
  -7  26   2     263.    -449.     862. <
  -8  26   2   16999.   16189.    1115. o
   0  28   2   22214.   25018.    1349. o
   1  28   2    1299.    1654.    2646. <
  -1  28   2    1316.    3673.    1227. o
  -2  28   2   35500.   37639.    1289. o
  -3  28   2    1515.    2327.    1157. o
  -4  28   2   18212.   17525.    1080. o
  -5  28   2     557.    1039.     980. <
  -6  28   2    7611.   12562.    1062. o
  -7  28   2     164.    -508.    1004. <
  -8  28   2    4985.    4915.    1607. o
   0  30   2  184389.  222268.    4348. o
   1  30   2     563.    2043.    1818. <
  -1  30   2     589.    1677.    1299. <
  -2  30   2  188478.  187123.    1766. o
  -3  30   2     385.     106.    1087. <
  -4  30   2  104713.  110412.    1247. o
  -5  30   2     298.    1523.    1122. <
  -6  30   2   43964.   50616.    1199. o
  -7  30   2      62.    1169.    1216. <
   0  32   2    9070.    6538.    1458. o
   1  32   2     710.    1276.    1771. <
  -1  32   2     732.     154.    1193. <
  -2  32   2   20377.   19493.    1199. o
  -3  32   2      80.    1098.    1193. <
  -4  32   2    6613.    6476.    1158. o
  -5  32   2     106.     980.    1216. <
  -6  32   2    7745.    5873.    1173. o
  -7  32   2      78.     -71.    1169. <
   0  34   2   14274.   13402.    1729. o
   1  34   2    2557.    3355.    1630. o
  -1  34   2    2574.    2126.    1205. <
  -2  34   2    8274.    7955.    1171. o
  -3  34   2     890.    1972.    1181. <
  -4  34   2   13921.   13256.    1185. o
  -5  34   2     252.     189.    1228. <
  -6  34   2   10002.   11689.    1261. o
  -7  34   2      87.     827.    1145. <
   0  36   2   62681.   60680.    1531. o
   1  36   2     327.    1228.    1559. <
  -1  36   2     344.     638.    1181. <
  -2  36   2   56347.   56750.    1409. o
  -3  36   2      91.    -283.    1193. <
  -4  36   2   35304.   33943.    1301. o
  -5  36   2      95.    -307.    1323. <
  -6  36   2   11576.   12577.    1392. o
   0  38   2   65698.   68951.    1495. o
   1  38   2    1251.    1453.    2433. <
  -1  38   2    1268.    1110.    1441. <
  -2  38   2   73882.   79767.    1301. o
  -3  38   2     474.    1594.    1216. <
  -4  38   2   38312.   41326.    1411. o
  -5  38   2     385.    1453.    1358. <
  -6  38   2   20192.   21987.    1543. o
   0  40   2    8702.   11039.    1307. o
   1  40   2    1216.    2374.    2409. <
  -1  40   2    1218.    -106.    1654. <
  -2  40   2    3744.    3213.    1453. o
  -3  40   2     619.    1795.    1334. <
  -4  40   2    9468.   11241.    1296. o
  -5  40   2     274.    -272.    1441. <
  -6  40   2    4980.    6462.    1629. o
   0  42   2     269.     886.    1145. <
   1  42   2     116.     283.    2232. <
  -1  42   2     125.    -413.    1370. <
  -2  42   2    1401.    1748.    1394. <
  -3  42   2       9.    -272.    1405. <
  -4  42   2    4087.    4300.    1417. o
  -5  42   2      78.     850.    1547. <
   0  44   2   45259.   50070.    1354. o
   1  44   2     790.    1559.    2386. <
  -1  44   2     800.    2457.    1369. <
   2  44   2   41821.   41670.    2087. o
  -2  44   2   41794.   37664.    1267. o
  -3  44   2     355.     791.    1382. <
  -4  44   2   27000.   32060.    1500. o
  -5  44   2     305.    1960.    1240. <
   0  46   2   20972.   23057.    1280. o
   1  46   2       5.     685.    2704. <
  -1  46   2       5.    -272.    1382. <
   2  46   2   26515.   27054.    1951. o
  -2  46   2   26588.   27210.    1180. o
  -3  46   2      97.    1252.    1169. <
  -4  46   2   12289.   13819.    1142. o
   0  48   2    1761.    3685.    1274. o
   1  48   2     101.    2326.    3106. <
  -1  48   2     108.    1795.    1594. <
   2  48   2    1260.     437.    1784. <
  -2  48   2    1212.     520.    1181. <
  -3  48   2      65.     992.    1134. <
  -4  48   2    3851.    3745.    1087. o
   0  50   2    1546.    2220.    1275. <
   1  50   2     665.    1937.    3602. <
  -1  50   2     667.    -602.    1571. <
   2  50   2    1608.    1004.    1772. <
  -2  50   2    1604.    2220.    1110. <
  -3  50   2     351.     342.    1063. <
   0  52   2   32067.   33182.    1414. o
   1  52   2      26.     626.    2090. <
  -1  52   2      29.    1488.    1145. <
   2  52   2   30941.    -130.    1777. <
  -2  52   2   30945.   29663.    1110. o
   0   1   3     805.     484.     697. <
   1   1   3  408534.  431343.    1177. o
  -1   1   3  408932.  410209.    1397. o
   2   1   3     421.    1949.    1641. <
  -2   1   3     455.    1843.    1192. <
   3   1   3  198045.  211470.    2439. o
  -3   1   3  198115.  140264.    2825. o
  -4   1   3    1659.    1429.    1134. <
  -5   1   3  133555.  135971.    1764. o
  -6   1   3     614.    1110.    1453. <
  -7   1   3   34136.   39214.    1591. o
  -8   1   3      24.    1216.    1535. <
  -9   1   3   11599.   13274.    1722. o
   0   3   3   16436.   17610.     871. o
   1   3   3   11690.   11320.    1410. o
  -1   3   3   11793.   12294.     839. o
   2   3   3    3803.    4704.    1642. o
  -2   3   3    3787.    3286.    1182. o
   3   3   3   34226.   33766.    2141. o
  -3   3   3   34135.   32312.    1448. o
  -4   3   3    6396.    4161.    1350. o
  -5   3   3   31227.   31470.    1480. o
  -6   3   3     420.    1535.    1452. <
  -7   3   3   21884.   22034.    1561. o
  -8   3   3     671.    1004.    1665. <
  -9   3   3   14433.   13182.    1634. o
   0   5   3    4066.    2175.     817. o
   1   5   3    1434.    2965.    1299. o
  -1   5   3    1458.    2327.     850. o
   2   5   3    1270.     520.    1583. <
  -2   5   3    1361.    -118.     851. <
   3   5   3   13978.    8403.    1902. o
  -3   5   3   14343.   10054.    1254. o
  -4   5   3     554.    2480.    1204. o
  -5   5   3   14553.   19686.    1390. o
  -6   5   3     854.    3283.    1511. o
  -7   5   3   10786.   13583.    1566. o
  -8   5   3     798.   -1181.    1641. <
  -9   5   3    7397.    9713.    1615. o
   0   7   3   12644.   18016.     898. o
   1   7   3  389699.  390494.    1753. o
  -1   7   3  388502.  399000.     913. o
   2   7   3   12000.    8629.    1733. o
  -2   7   3   12074.    8713.     828. o
   3   7   3  224039.  220873.    2778. o
  -3   7   3  223642.  197001.    2556. o
  -4   7   3    5226.    3770.    1372. o
  -5   7   3  152607.  154969.    1650. o
  -6   7   3    2545.    4170.    1275. o
  -7   7   3   41984.   44776.    1652. o
  -8   7   3     147.    1488.    1547. <
  -9   7   3   16096.   18208.    1744. o
   0   9   3   52348.   52550.     977. o
   1   9   3   85429.   90313.    1089. o
  -1   9   3   85525.   91364.    1292. o
   2   9   3    2933.    2221.    1524. <
  -2   9   3    3055.     804.     864. <
   3   9   3   37268.   43372.    1962. o
  -3   9   3   37555.   37390.     929. o
  -4   9   3   11423.    6907.    1226. o
  -5   9   3   37547.   46417.    1536. o
  -6   9   3    2454.    1169.    1501. <
  -7   9   3   10833.   11396.    1666. o
  -8   9   3     923.   -1004.    1665. <
  -9   9   3    3770.    4891.    1736. o
   0  11   3      50.     732.     862. <
   1  11   3   56636.   59237.    1049. o
  -1  11   3   56956.   59334.    1176. o
   2  11   3     686.     472.    1583. <
  -2  11   3     733.     484.     874. <
   3  11   3   67114.   65998.    2110. o
  -3  11   3   67253.   54994.    1210. o
  -4  11   3     720.    3272.    1345. o
  -5  11   3   50649.   49794.    1634. o
  -6  11   3     515.    1949.    1535. <
  -7  11   3   31015.   36417.    1519. o
  -8  11   3     518.    1051.    1582. <
   0  13   3    4938.    5580.    1193. o
   1  13   3   48787.   35250.    1157. o
  -1  13   3   48776.   54287.    1251. o
   2  13   3   21625.   25938.    1774. o
  -2  13   3   21585.   22890.    1048. o
   3  13   3   21137.   20602.    1814. o
  -3  13   3   21199.   16754.     867. o
  -4  13   3     537.    3000.     991. o
  -5  13   3   23140.   23159.    1539. o
  -6  13   3    2422.    3780.    1535. o
  -7  13   3    6793.    6121.    1454. o
  -8  13   3     942.    4016.    1652. o
   0  15   3    1690.    2374.    1169. o
   1  15   3  473945.  407666.    4347. o
  -1  15   3  474024.  506941.    9980. o
   2  15   3    4343.    2446.    1785. <
  -2  15   3    4427.    3368.    1147. o
   3  15   3  263103.  236107.    3169. o
  -3  15   3  263227.  247746.    2107. o
  -4  15   3    3285.    1548.     993. <
  -5  15   3  162415.  109758.    2294. o
  -6  15   3     843.    1594.    1464. <
  -7  15   3   48074.   48956.    1475. o
  -8  15   3     428.    1134.    1547. <
   0  17   3    3516.    4514.    1181. o
   1  17   3   28995.   27004.    1094. o
  -1  17   3   28838.   26949.    1163. o
   2  17   3    5752.    5236.    1844. o
  -2  17   3    5864.    5343.    1171. o
   3  17   3   14619.    9811.    1807. o
  -3  17   3   14555.   10662.    1264. o
  -4  17   3    4299.    2788.     958. o
  -5  17   3   15619.   14301.    1022. o
  -6  17   3    2637.     201.     899. <
  -7  17   3    6311.    5388.    1502. o
  -8  17   3     570.    2563.    1535. <
   0  19   3     380.    -106.    1181. <
   1  19   3   22864.   22960.    1102. o
  -1  19   3   22817.   23539.    1336. o
   2  19   3   11230.   12079.    1974. o
  -2  19   3   11143.   11072.    1065. o
  -3  19   3   37140.   36619.    1274. o
  -4  19   3     213.    1429.     968. <
  -5  19   3   27213.   24834.    1034. o
  -6  19   3    1817.    3520.     955. o
  -7  19   3   19438.   14479.    1084. o
  -8  19   3    1006.    1488.    1004. <
   0  21   3     836.    1795.    1240. <
   1  21   3  120912.  117735.    1477. o
  -1  21   3  120784.  126361.    1453. o
   2  21   3     725.     -83.    1476. <
  -2  21   3     697.     189.    1287. <
  -3  21   3   66963.   60655.    1288. o
  -4  21   3     438.    1276.    1086. <
  -5  21   3   43416.   37485.     990. o
  -6  21   3     384.    1960.     932. o
  -7  21   3   11934.   12613.     991. o
  -8  21   3     765.    1606.    1004. <
   0  23   3   32394.   38313.    1322. o
   1  23   3  167570.  164111.    1723. o
  -1  23   3  167645.  166992.    1782. o
   2  23   3    2051.       0.    1571. <
  -2  23   3    2146.    -378.    1087. <
  -3  23   3   99582.  101809.    1343. o
  -4  23   3   10252.    7507.     988. o
  -5  23   3   70982.   74387.    1194. o
  -6  23   3    2951.    -118.     875. <
  -7  23   3   23810.   23665.    1042. o
  -8  23   3     858.     744.    1004. <
   0  25   3    3856.    8696.    1257. o
   1  25   3    4078.    4525.    1146. o
  -1  25   3    4108.    5707.    1298. o
   2  25   3    1090.    1157.    1630. <
  -2  25   3    1109.     331.    1181. <
  -3  25   3   11274.   12110.    1121. o
  -4  25   3    1611.    2752.    1062. o
  -5  25   3   13145.   11328.     987. o
  -6  25   3    1132.     744.    1063. <
  -7  25   3    9685.    8652.    1031. o
  -8  25   3      45.    -319.    1051. <
   0  27   3    1005.    2291.    1322. <
   1  27   3    5133.    6641.    1357. o
  -1  27   3    5138.    4963.    1229. o
   2  27   3    2573.    4879.    1664. o
  -2  27   3    2590.    1548.    1158. <
  -3  27   3   12702.   12785.    1041. o
  -4  27   3    2149.    4347.     931. o
  -5  27   3   11948.   12697.    1085. o
  -6  27   3     951.    1335.    1027. <
  -7  27   3   10003.    4917.    1166. o
   0  29   3    8522.    8169.    1455. o
   1  29   3  130567.  141789.    1497. o
  -1  29   3  130547.  126960.    2332. o
   2  29   3    1578.    3390.    1783. <
  -2  29   3    1592.    2114.    1146. <
  -3  29   3   83904.   80577.    1354. o
  -4  29   3    3102.    1595.    1064. <
  -5  29   3   53255.   56783.    1055. o
  -6  29   3     143.      24.    1063. <
  -7  29   3   18571.   15091.    1172. o
   0  31   3     920.    3543.    1262. o
   1  31   3   96966.   79383.    1550. o
  -1  31   3   97055.  108584.    1916. o
   2  31   3    2630.    2859.    1973. <
  -2  31   3    2673.    2776.    1075. o
  -3  31   3   58313.   57287.    1154. o
  -4  31   3    1596.    1098.    1063. <
  -5  31   3   36631.   41610.    1139. o
  -6  31   3    1054.     248.     957. <
  -7  31   3   11323.    5366.    1204. o
   0  33   3     102.     -47.    1323. <
   1  33   3    6456.    7575.    1653. o
  -1  33   3    6412.    5637.    1136. o
   2  33   3     823.     673.    1311. <
  -2  33   3     829.    -201.    1110. <
  -3  33   3   11294.   11362.    1111. o
  -4  33   3     248.    1169.     980. <
  -5  33   3   10507.   11902.    1119. o
  -6  33   3     284.     874.    1098. <
  -7  33   3    9195.   10116.    1487. o
   0  35   3     841.     661.    1193. <
   1  35   3    4244.    5588.    2386. o
  -1  35   3    4220.    4501.    1110. o
   2  35   3    2240.    2540.    2469. <
  -2  35   3    2200.    3922.    1121. o
  -3  35   3    3212.    4371.    1097. o
  -4  35   3     645.    2067.    1062. <
  -5  35   3    3677.    5115.    1002. o
  -6  35   3     226.    1890.    1228. <
   0  37   3    1015.    2575.    1121. o
   1  37   3  100206.  108144.    2190. o
  -1  37   3  100268.  107113.    1304. o
   2  37   3     578.    2138.    2421. <
  -2  37   3     617.     307.    1169. <
  -3  37   3   64838.   63940.    1672. o
  -4  37   3     744.     319.    1169. <
  -5  37   3   39310.   43228.    1098. o
  -6  37   3     646.     531.    1193. <
   0  39   3    3911.    7112.    1224. o
   1  39   3    8863.    9172.    1631. o
  -1  39   3    8887.   10685.    1130. o
   2  39   3    1576.    1429.    2280. <
  -2  39   3    1587.    2362.    1134. o
  -3  39   3    5388.    5589.    1465. o
  -4  39   3    1404.    2835.    1109. o
  -5  39   3    5349.    6333.    1559. o
  -6  39   3     946.    1736.    1134. <
   0  41   3     170.    -354.    1512. <
   1  41   3    8674.    6666.    1138. o
  -1  41   3    8659.    9077.    1110. o
   2  41   3     417.    1842.    2102. <
  -2  41   3     406.     886.    1228. <
  -3  41   3   11743.   13098.    1261. o
  -4  41   3     137.    1311.    1216. <
  -5  41   3    9474.    8178.    1515. o
   0  43   3     469.     130.    1228. <
   1  43   3   11083.   13499.    1591. o
  -1  43   3   11095.   11324.    1465. o
   2  43   3     249.      94.    1724. <
  -2  43   3     264.    1370.    1169. <
  -3  43   3    7428.    7586.    1276. o
  -4  43   3     483.     779.    1264. <
  -5  43   3    5057.    6002.    1298. o
   0  45   3    1754.    3130.    1334. o
   1  45   3   46967.   53346.    1765. o
  -1  45   3   47065.   46060.    1738. o
  -2  45   3     351.    1512.    1181. <
  -3  45   3   32436.   33530.    1366. o
  -4  45   3     724.    2291.    1393. <
   0  47   3      90.     484.    1323. <
   1  47   3    1845.    3449.    1688. o
  -1  47   3    1836.    2752.    1606. <
  -2  47   3     207.    -732.    1370. <
  -3  47   3    1651.    2598.    1417. <
   0  49   3     390.    1335.    1311. <
   1  49   3    1011.    1571.    1689. <
  -1  49   3    1003.    1276.    1264. <
  -2  49   3     305.     484.    1157. <
  -3  49   3    1933.    2138.    1394. <
   0  51   3     606.    1335.    1323. <
   1  51   3   16532.    7390.    1146. o
  -1  51   3   16558.   15655.    1315. o
   0   0   4  652021.  668312.   13353. o
   1   0   4    4250.    5497.    1346. o
  -1   0   4    4036.    6050.     824. o
   2   0   4  247210.  267954.    2606. o
  -2   0   4  247459.  231358.    2070. o
   3   0   4    1215.    1110.    2327. <
  -3   0   4    1321.     260.    1453. <
   4   0   4  326146.  367788.    3701. o
  -4   0   4  324231.  323258.    2589. o
  -5   0   4     198.     -59.    1712. <
  -6   0   4   68275.   76196.    2018. o
  -7   0   4     420.    -673.    1890. <
  -8   0   4   43216.   42531.    2243. o
   0   2   4   24886.   23730.     839. o
   1   2   4    8069.    7878.     982. o
  -1   2   4    7876.    8703.     636. o
   2   2   4   23328.   28586.    1456. o
  -2   2   4   23239.   25855.     723. o
   3   2   4    3463.    2647.    1678. <
  -3   2   4    3530.    2186.    1041. o
   4   2   4   14012.   20184.    2223. o
  -4   2   4   13935.   19508.    1161. o
  -5   2   4     949.    1394.    1098. <
  -6   2   4   10339.   11159.    1298. o
  -7   2   4     369.    2008.    1334. <
  -8   2   4    4731.    4548.    1453. o
   0   4   4  101214.   89649.    1284. o
   1   4   4    5912.    4682.    1078. o
  -1   4   4    5765.    5934.     602. o
   2   4   4   11706.   12626.    1442. o
  -2   4   4   11622.   12861.     740. o
   3   4   4    2536.    1205.    1701. <
  -3   4   4    2601.    1217.     769. <
   4   4   4   80896.   96868.    2332. o
  -4   4   4   80956.   90885.    1232. o
  -5   4   4    1301.    1843.    1063. <
  -6   4   4   16822.   20440.    1299. o
  -7   4   4     677.    1689.    1334. <
  -8   4   4   32150.   33410.    1532. o
   0   6   4  172282.  168163.    1308. o
   1   6   4    7687.    5831.    1150. o
  -1   6   4    7514.    6704.     605. o
   2   6   4   53070.   56231.    1530. o
  -2   6   4   53715.   51760.     947. o
   3   6   4    4718.    6417.    1925. o
  -3   6   4    4799.    3699.     723. o
   4   6   4   68898.   73800.    2234. o
  -4   6   4   68520.   71991.    1419. o
  -5   6   4    2168.    2433.    1169. o
  -6   6   4   16561.   16989.    1347. o
  -7   6   4     675.    -803.    1464. <
  -8   6   4    8775.   10588.    1569. o
   0   8   4  388892.  396564.     894. o
   1   8   4   20998.   16999.     899. o
  -1   8   4   20770.   18841.     771. o
   2   8   4  153545.  158640.    1691. o
  -2   8   4  154998.  148475.    1308. o
   3   8   4   13677.   14612.    1832. o
  -3   8   4   13764.   12070.     847. o
   4   8   4  172310.  180732.    2449. o
  -4   8   4  171366.  113638.    2330. o
  -5   8   4    3192.    4820.    1203. o
  -6   8   4   47452.   45680.    1275. o
  -7   8   4    1284.     -94.    1441. <
  -8   8   4   24353.   26665.    1516. o
   0  10   4   11951.   11230.     843. o
   1  10   4    2241.    1571.     910. <
  -1  10   4    2112.    2008.     921. o
   2  10   4    3647.    3250.    1513. o
  -2  10   4    3496.    2942.     792. o
   3  10   4    2688.    2457.    2020. <
  -3  10   4    2771.    1902.     851. o
   4  10   4   26263.   31864.    1991. o
  -4  10   4   26553.   29565.     923. o
  -5  10   4    1462.     768.    1122. <
  -6  10   4    7761.    6665.    1349. o
  -7  10   4     913.    1157.    1441. <
  -8  10   4   13483.   12047.    1516. o
   0  12   4   17523.   16640.     775. o
   1  12   4    3838.    4952.     814. o
  -1  12   4    3726.    5660.    1014. o
   2  12   4   12607.    6401.    1583. o
  -2  12   4   12601.    7442.     867. o
   3  12   4    2522.    2752.    1914. <
  -3  12   4    2576.    2528.     756. o
   4  12   4   29709.   32639.    1907. o
  -4  12   4   29727.   30660.     808. o
  -5  12   4    2222.    1429.     922. <
  -6  12   4   13354.   13823.    1382. o
  -7  12   4     537.     307.    1299. <
  -8  12   4   15625.   15063.    1586. o
   0  14   4  297747.  305503.     993. o
   1  14   4    5436.    4067.     841. o
  -1  14   4    5232.    6440.    1050. o
   2  14   4  136080.  147330.    1715. o
  -2  14   4  136323.  136308.    1325. o
   3  14   4    1979.    2374.    1878. <
  -3  14   4    2000.    2563.     862. o
  -4  14   4  148070.  129795.    1638. o
  -5  14   4     682.    2457.     908. o
  -6  14   4   39277.   27777.    1046. o
  -7  14   4     332.    2031.    1287. <
  -8  14   4   18911.   20387.    1627. o
   0  16   4  191072.  189422.    1409. o
   1  16   4    2911.    2103.     946. o
  -1  16   4    2760.    3367.    1086. o
   2  16   4  130740.  149397.    1659. o
  -2  16   4  130870.  139056.    1248. o
   3  16   4     645.     839.    1772. <
  -3  16   4     699.    -531.     968. <
  -4  16   4   87066.   81552.    1193. o
  -5  16   4      56.    1370.     826. <
  -6  16   4   39643.   38047.     977. o
  -7  16   4     289.    -827.    1027. <
  -8  16   4   10559.    7694.    1164. o
   0  18   4   20152.   19768.     985. o
   1  18   4    6623.    4197.     937. o
  -1  18   4    6545.    6714.    1170. o
   2  18   4    6289.    8699.    1545. o
  -2  18   4    6276.    8084.    1155. o
   3  18   4    2954.    1146.    1572. <
  -3  18   4    2985.    3721.    1110. o
  -4  18   4   26699.   31598.     992. o
  -5  18   4     930.    2043.     850. o
  -6  18   4   11780.   10498.     903. o
  -7  18   4     267.    1004.    1027. <
  -8  18   4   15384.   16433.    1107. o
   0  20   4    2301.    2374.    1193. <
   1  20   4    2378.    3946.     920. o
  -1  20   4    2298.    4111.    1002. o
   2  20   4    2073.     378.    1595. <
  -2  20   4    2136.     402.    1217. <
   3  20   4    1380.      59.    1618. <
  -3  20   4    1436.    1595.    1122. <
  -4  20   4    5247.    7409.    1095. o
  -5  20   4    1006.    1535.     862. <
  -6  20   4    5868.    5057.     852. o
  -7  20   4     361.     260.     886. <
  -8  20   4    3625.    5280.    1061. o
   0  22   4  219065.  220817.    1677. o
   1  22   4    4504.    4940.    1004. o
  -1  22   4    4414.    6298.    1203. o
   2  22   4  142475.  149029.    2116. o
  -2  22   4  142911.  141277.    1555. o
   3  22   4    5803.    3699.    1656. o
  -3  22   4    5908.    5460.    1182. o
  -4  22   4  106734.  108583.    1358. o
  -5  22   4    1388.    1122.    1110. <
  -6  22   4   44346.   41153.    1100. o
  -7  22   4     800.     756.     874. <
   0  24   4   30591.   29897.    1320. o
   1  24   4    7907.    7625.    1076. o
  -1  24   4    7818.    7837.    1206. o
   2  24   4   25253.    8919.    1350. o
  -2  24   4   25304.   25585.    1112. o
   3  24   4    5979.    5956.    1761. o
  -3  24   4    5987.    5885.    1206. o
  -4  24   4   16506.   17875.    1118. o
  -5  24   4    1589.     685.    1087. <
  -6  24   4    7894.    2860.     893. o
  -7  24   4     751.    2079.    1086. <
   0  26   4   25549.   25775.    1314. o
   1  26   4     487.    1087.    1098. <
  -1  26   4     442.    1925.    1228. <
   2  26   4   29828.   18116.    1527. o
  -2  26   4   29960.   33002.    1102. o
   3  26   4     357.     531.    1689. <
  -3  26   4     379.     224.    1098. <
  -4  26   4   27081.   31330.    1106. o
  -5  26   4     700.    -283.    1087. <
  -6  26   4   20217.   18573.    1167. o
  -7  26   4     380.    -661.    1169. <
   0  28   4   25435.   31622.    1289. o
   1  28   4    3462.    4430.    1157. o
  -1  28   4    3389.    4265.    1287. o
   2  28   4   18516.    8638.    1326. o
  -2  28   4   18570.   20697.    1269. o
  -3  28   4    2468.    2823.    1134. o
  -4  28   4   12978.   15312.    1139. o
  -5  28   4    1029.    2598.     920. o
  -6  28   4    7305.    6688.     947. o
  -7  28   4     455.    1677.    1559. <
   0  30   4  142403.  151620.    1403. o
   1  30   4    1515.    1039.    1134. <
  -1  30   4    1427.    2386.    1252. <
   2  30   4  111503.   75245.    2080. o
  -2  30   4  111684.  115133.    1384. o
  -3  30   4     943.     697.    1051. <
  -4  30   4   70790.   77192.    1115. o
  -5  30   4     145.    1582.    1074. <
  -6  30   4   36253.   41441.    1162. o
   0  32   4    5954.    7267.    1310. o
   1  32   4     291.    2681.    1275. o
  -1  32   4     275.    2279.    1228. <
   2  32   4    3128.    2351.    1300. <
  -2  32   4    3097.    4288.    1074. o
  -3  32   4     469.    1370.    1086. <
  -4  32   4    6531.    7054.    1110. o
  -5  32   4     223.     236.     968. <
  -6  32   4    3015.    1004.    1005. <
   0  34   4    3619.    3083.    1300. o
   1  34   4    3060.    4288.    1310. o
  -1  34   4    3028.    4087.    1109. o
   2  34   4    7054.    5602.    1455. o
  -2  34   4    7037.    7433.    1063. o
  -3  34   4    1807.    1039.     933. <
  -4  34   4    7110.    8248.    1109. o
  -5  34   4     621.     -94.    1110. <
  -6  34   4    8559.    3841.    1164. o
   0  36   4   38459.   35106.    1282. o
   1  36   4     892.    2043.    1299. <
  -1  36   4     848.    1051.    1086. <
   2  36   4   35514.   38019.    2264. o
  -2  36   4   35481.   33860.    1139. o
  -3  36   4     721.     744.    1110. <
  -4  36   4   19046.   19197.    1147. o
  -5  36   4     163.    1228.    1004. <
  -6  36   4   11171.   13758.    1055. o
   0  38   4   57764.   54714.    1444. o
   1  38   4    1617.    1606.    1252. <
  -1  38   4    1600.    4370.    1096. o
   2  38   4   43110.   46883.    2244. o
  -2  38   4   43096.   42911.    1246. o
  -3  38   4    1948.    1902.     945. o
  -4  38   4   30712.   33231.    1177. o
  -5  38   4     688.     555.    1098. <
   0  40   4     909.    1311.    1146. <
   1  40   4    1980.    2256.    1512. <
  -1  40   4    1956.    3886.    1180. o
   2  40   4    3918.    3981.    1985. o
  -2  40   4    3980.    4194.    1158. o
  -3  40   4    1384.    2268.    1110. o
  -4  40   4    3159.    4394.    1038. o
  -5  40   4     578.     378.    1110. <
   0  42   4     927.    1346.    1228. <
   1  42   4     110.      35.    1476. <
  -1  42   4      95.      24.    1181. <
   2  42   4    1551.    -650.    1819. <
  -2  42   4    1566.    2209.    1157. <
  -3  42   4     249.     980.    1134. <
  -4  42   4    2899.    4158.    1145. o
   0  44   4   35825.   38148.    1644. o
   1  44   4    1204.    1488.    1346. <
  -1  44   4    1188.    2126.    1086. <
   2  44   4   31160.    4285.    1886. o
  -2  44   4   31197.   35043.    1239. o
  -3  44   4    1251.    1157.    1169. <
  -4  44   4   19014.   17373.    1225. o
   0  46   4   18400.   21702.    1776. o
   1  46   4     147.     827.    1358. <
  -1  46   4     132.    -685.    1193. <
   2  46   4   12211.     248.    1734. <
  -2  46   4   12220.   13251.    1226. o
  -3  46   4      82.     685.    1287. <
   0  48   4    1087.     874.    1405. <
   1  48   4      13.    1960.    1806. <
  -1  48   4      12.    1760.    1429. <
   2  48   4    2557.    3036.    1890. <
  -2  48   4    2542.    3803.    1227. o
   0   1   5     167.    1004.     732. <
   1   1   5  166061.  180222.     961. o
  -1   1   5  165913.  163465.    1008. o
   2   1   5    2810.    3403.    1157. o
  -2   1   5    2786.    2883.     602. o
   3   1   5  145308.  147099.    1899. o
  -3   1   5  145546.  146874.     752. o
   4   1   5     229.    3165.    1983. <
  -4   1   5     238.    2362.     944. o
  -5   1   5   46974.   44716.    1186. o
  -6   1   5     522.     839.    1181. <
  -7   1   5   27948.   30040.    1313. o
  -8   1   5     390.    1523.    1346. <
   0   3   5    3483.    1335.     746. <
   1   3   5   10442.   10350.    1136. o
  -1   3   5   10314.    9390.     584. o
   2   3   5   10985.   10444.    1279. o
  -2   3   5   10964.    9272.     610. o
   3   3   5   13780.   14932.    1476. o
  -3   3   5   13488.   13140.     794. o
   4   3   5     654.    4830.    2053. o
  -4   3   5     646.    1075.     779. <
  -5   3   5   17988.   19817.    1151. o
  -6   3   5    2267.    1287.    1146. <
  -7   3   5   16371.   19760.    1300. o
  -8   3   5     277.    1205.    1334. <
   0   5   5     332.     520.     756. <
   1   5   5    4610.    4880.    1028. o
  -1   5   5    4704.    5732.     588. o
   2   5   5    1070.    1819.    1252. <
  -2   5   5    1130.    1642.     578. o
   3   5   5    6489.    8769.    1450. o
  -3   5   5    6541.    6784.     768. o
   4   5   5    1463.    2882.    2008. <
  -4   5   5    1446.    1264.     756. <
  -5   5   5    7492.    8037.    1134. o
  -6   5   5    2073.    2126.    1193. <
  -7   5   5    8391.    8745.    1287. o
  -8   5   5     388.    2893.    1428. o
   0   7   5   10505.    9131.     797. o
   1   7   5  194424.  203400.    1298. o
  -1   7   5  193646.  190981.    1221. o
   2   7   5   12068.   14407.    1413. o
  -2   7   5   12116.    9309.     651. o
   3   7   5  187155.  206035.    1726. o
  -3   7   5  187616.  161070.    1880. o
   4   7   5    4445.    6770.    2125. o
  -4   7   5    4450.    4832.     756. o
  -5   7   5   63623.   47726.    1154. o
  -6   7   5    2327.    1394.    1170. <
  -7   7   5   36783.   42547.    1413. o
  -8   7   5    1046.    2764.    1357. o
   0   9   5     927.    1654.     779. o
   1   9   5   40342.   36872.    1159. o
  -1   9   5   40338.   40826.     849. o
   2   9   5   21369.   22549.    1499. o
  -2   9   5   21272.   21042.     748. o
   3   9   5   43096.   47233.    1631. o
  -3   9   5   43090.   44229.     887. o
   4   9   5    1543.    1346.    1866. <
  -4   9   5    1610.    2374.     814. o
  -5   9   5   13617.   14167.     896. o
  -6   9   5    3863.    1666.     781. o
  -7   9   5    9002.   13567.    1348. o
  -8   9   5    1190.     992.    1370. <
   0  11   5     267.     106.     779. <
   1  11   5   46785.   49956.     818. o
  -1  11   5   46902.   51972.     759. o
   2  11   5    1729.    2126.    1465. <
  -2  11   5    1777.    2209.     874. o
   3  11   5   33331.   39101.    1879. o
  -3  11   5   33301.   27303.     918. o
   4  11   5     457.    3330.    1936. <
  -4  11   5     467.     756.     803. <
  -5  11   5   30518.   29767.     848. o
  -6  11   5    1712.    1122.     898. <
  -7  11   5   23250.   14896.    1044. o
  -8  11   5     373.     768.     945. <
   0  13   5   15396.   10745.     743. o
   1  13   5   25074.   25095.     924. o
  -1  13   5   25019.   27167.     859. o
   2  13   5    3069.    3308.    1477. o
  -2  13   5    3115.    4017.     885. o
   3  13   5   26525.   32967.    1927. o
  -3  13   5   26488.   26984.     896. o
   4  13   5    5580.    5719.    1843. o
  -4  13   5    5475.    5482.     744. o
  -5  13   5    6648.    6357.     851. o
  -6  13   5    1456.    1417.     815. <
  -7  13   5    5805.    6675.    1003. o
   0  15   5     877.     402.     780. <
   1  15   5  198065.  207738.     829. o
  -1  15   5  197827.  211813.    4230. o
   2  15   5    3905.    5293.    1488. o
  -2  15   5    3875.    5423.     896. o
   3  15   5  173030.  185946.    2200. o
  -3  15   5  173220.  183922.     888. o
   4  15   5     250.    2055.    1736. <
  -4  15   5     290.    1464.     862. <
  -5  15   5   67731.   65563.     945. o
  -6  15   5    1316.    1535.     898. <
  -7  15   5   36897.   40919.    1013. o
   0  17   5    1424.    3591.     884. o
   1  17   5    8739.    9363.     932. o
  -1  17   5    8724.    5970.     845. o
   2  17   5    4982.    5613.    1275. o
  -2  17   5    4951.    4762.    1064. o
   3  17   5   13038.   13246.    1833. o
  -3  17   5   12963.   13103.    1123. o
   4  17   5    1515.    1476.    1642. <
  -4  17   5    1615.    1169.     827. <
  -5  17   5    4678.    3946.     911. o
  -6  17   5    1236.    -425.     898. <
  -7  17   5    4327.    5493.     884. o
   0  19   5    8965.    7732.     819. o
   1  19   5   14366.   15118.     991. o
  -1  19   5   14351.   15532.    1120. o
   2  19   5    1443.    2280.    1512. <
  -2  19   5    1459.    3177.     944. o
   3  19   5   15866.   16504.    1761. o
  -3  19   5   15691.   17056.    1142. o
   4  19   5    3889.    6427.    1664. o
  -4  19   5    3796.    5245.     979. o
  -5  19   5   16653.   18795.     983. o
  -6  19   5    1412.    1488.     945. <
  -7  19   5   13817.   15522.     915. o
   0  21   5    2219.    2504.     909. o
   1  21   5   47811.   48674.    1046. o
  -1  21   5   47702.   49678.    1214. o
   2  21   5    1114.    1630.    1370. <
  -2  21   5    1173.    1051.    1110. <
   3  21   5   46565.   45933.    1903. o
  -3  21   5   46616.   51952.    1050. o
   4  21   5    1390.    3614.    1712. o
  -4  21   5    1346.    2020.    1145. <
  -5  21   5   16181.   19171.    1242. o
  -6  21   5    1538.     343.    1028. <
  -7  21   5    8858.    5022.    1034. o
   0  23   5     957.    1500.     909. <
   1  23   5  104585.  105027.    1256. o
  -1  23   5  104518.  108842.    1306. o
   2  23   5   17598.   17795.    1691. o
  -2  23   5   17535.   19510.    1032. o
   3  23   5   87785.   87662.    1919. o
  -3  23   5   87951.   99162.    1114. o
   4  23   5    1803.     331.    2634. <
  -4  23   5    1888.    2481.    1181. o
  -5  23   5   35710.   41461.    1256. o
  -6  23   5    3072.    3107.    1193. o
  -7  23   5   18041.   10832.    1157. o
   0  25   5    1333.    1394.     969. <
   1  25   5    3959.    3981.    1004. o
  -1  25   5    4020.    4998.    1169. o
   2  25   5    3587.    6805.    1663. o
  -2  25   5    3564.    6450.    1036. o
   3  25   5    5347.    5246.    1560. o
  -3  25   5    5320.    5282.    1182. o
  -4  25   5    1134.     -24.    1146. <
  -5  25   5    7226.    7126.    1170. o
  -6  25   5     846.    1087.    1157. <
   0  27   5    2656.    3780.    1003. o
   1  27   5    6678.    6653.    1075. o
  -1  27   5    6720.    6772.    1241. o
   2  27   5     843.     520.    1122. <
  -2  27   5     919.    1063.    1169. <
   3  27   5    7260.    7138.    1607. o
  -3  27   5    7242.    6559.    1171. o
  -4  27   5    1882.    2126.    1181. <
  -5  27   5    8267.    9064.    1121. o
  -6  27   5    1729.    2799.    1110. o
   0  29   5    2204.    3095.    1098. o
   1  29   5   78280.   58849.    1476. o
  -1  29   5   78185.   81810.    1236. o
   2  29   5    5321.    3970.    1242. o
  -2  29   5    5314.    6120.    1192. o
   3  29   5   65273.   62307.    1903. o
  -3  29   5   65315.   65969.    1274. o
  -4  29   5     623.     980.    1027. <
  -5  29   5   28571.   31912.    1003. o
  -6  29   5    1269.    -886.    1110. <
   0  31   5     919.     768.    1087. <
   1  31   5   40274.   40557.    1302. o
  -1  31   5   40132.   46075.    1137. o
   2  31   5    1353.    1913.    1193. <
  -2  31   5    1316.    1299.    1016. <
   3  31   5   35930.   33669.    1812. o
  -3  31   5   35955.   36832.    1058. o
  -4  31   5     552.    1618.     921. <
  -5  31   5   14848.   17616.    1790. o
  -6  31   5     493.    -555.     980. <
   0  33   5     792.    1394.    1145. <
   1  33   5    5030.    6652.    1215. o
  -1  33   5    5038.    5884.    1180. o
   2  33   5     438.     130.    1181. <
  -2  33   5     459.    1016.    1110. <
  -3  33   5    6426.    6250.    1099. o
  -4  33   5     519.     -71.    1039. <
  -5  33   5    7664.    6346.    1703. o
   0  35   5    2899.    2965.    1146. o
   1  35   5    2116.    1134.    1134. <
  -1  35   5    2093.    2953.    1192. o
   2  35   5    1363.    -165.    1252. <
  -2  35   5    1369.    1465.    1098. <
  -3  35   5    2803.    1890.    1075. <
  -4  35   5    1040.    1866.    1063. <
  -5  35   5    1526.    2669.     968. o
   0  37   5      99.     354.    1134. <
   1  37   5   51290.   35347.    1356. o
  -1  37   5   51227.   50550.    1241. o
   2  37   5    1812.    1311.    1311. <
  -2  37   5    1808.    3047.    1062. o
  -3  37   5   41543.   40786.    1086. o
  -4  37   5     458.     898.    1134. <
  -5  37   5   20400.   19822.    1197. o
   0  39   5    1618.    1760.    1146. <
   1  39   5    6950.    6180.    1159. o
  -1  39   5    6913.    6558.    1218. o
   2  39   5    2741.    1205.    1843. <
  -2  39   5    2733.    2292.    1158. <
  -3  39   5    7444.    9501.    1083. o
  -4  39   5    1170.     945.    1134. <
   0  41   5     805.    1276.    1122. <
   1  41   5    6972.    6002.    1124. o
  -1  41   5    7010.    8011.    1121. o
   2  41   5     442.     957.    1949. <
  -2  41   5     442.     402.    1169. <
  -3  41   5    6274.    5376.    1006. o
   0  43   5     521.    2575.    1145. o
   1  43   5    5375.    4395.    1112. o
  -1  43   5    5374.    6226.    1204. o
   2  43   5     850.     968.    1866. <
  -2  43   5     866.    2197.    1098. <
  -3  43   5    5112.    5305.    1075. o
   0  45   5     505.     295.    1181. <
   1  45   5   30210.   15376.    1522. o
  -1  45   5   30131.   35366.    1156. o
   2  45   5    1176.     154.    1736. <
  -2  45   5    1162.    2055.    1086. <
   0   0   6  121708.  130966.    1382. o
   1   0   6    2801.    2977.    1276. o
  -1   0   6    2968.    3722.     862. o
   2   0   6  207596.  196351.    2677. o
  -2   0   6  206551.  218297.     626. o
   3   0   6     628.    1630.    2043. <
  -3   0   6     568.     531.     815. <
   4   0   6   69949.   88233.    2759. o
  -4   0   6   70495.   70034.    1055. o
   5   0   6    1433.    8126.    3410. o
  -5   0   6    1394.    2504.     932. o
  -6   0   6   71129.   73870.    1800. o
  -7   0   6     521.    -626.    1677. <
   0   2   6   20907.   20234.    1022. o
   1   2   6    3558.    4525.    1110. o
  -1   2   6    3653.    3001.     580. o
   2   2   6    7561.   10047.    1295. o
  -2   2   6    7523.   10141.     592. o
   3   2   6    2079.    1358.    1441. <
  -3   2   6    2017.    1488.     567. o
   4   2   6    9664.   13748.    1849. o
  -4   2   6    9555.    8250.     620. o
   5   2   6    1498.    1453.    2445. <
  -5   2   6    1502.    1913.     779. o
  -6   2   6    4508.    4040.    1146. o
  -7   2   6     475.    1063.    1216. <
   0   4   6    4894.    3864.     770. o
   1   4   6    3461.    4749.    1097. o
  -1   4   6    3551.    3367.     674. o
   2   4   6   51143.   54693.    1267. o
  -2   4   6   51302.   53218.     687. o
   3   4   6    2050.    2410.    1441. <
  -3   4   6    2005.    1228.     615. <
   4   4   6   10480.   11196.    1867. o
  -4   4   6   10385.    8854.     644. o
   5   4   6    1451.    6295.    2336. o
  -5   4   6    1465.    2929.     790. o
  -6   4   6   29786.   24399.     941. o
  -7   4   6     684.    1488.    1193. <
   0   6   6   37083.   37376.     791. o
   1   6   6    6376.    8757.    1023. o
  -1   6   6    6487.    8805.     654. o
   2   6   6   49163.   51395.    1392. o
  -2   6   6   49098.   51534.     690. o
   3   6   6    3939.    4194.    1465. o
  -3   6   6    3899.    3946.     662. o
   4   6   6   16888.   22010.    2128. o
  -4   6   6   17217.   17546.     755. o
   5   6   6    2698.    3579.    2173. <
  -5   6   6    2697.    3745.     790. o
  -6   6   6   15121.   15950.     883. o
  -7   6   6    1157.    2480.     920. o
   0   8   6  133901.  136264.     906. o
   1   8   6   12682.   12630.    1053. o
  -1   8   6   12843.   10894.     730. o
   2   8   6  157326.  166978.    1438. o
  -2   8   6  157178.  161679.     586. o
   3   8   6    4890.    4904.    1489. o
  -3   8   6    4850.    3545.     617. o
   4   8   6   58604.   75388.    2163. o
  -4   8   6   59415.   63328.     789. o
   5   8   6    4622.    4643.    2068. o
  -5   8   6    4614.    4360.     804. o
  -6   8   6   42630.   45015.     881. o
  -7   8   6    1243.    2220.     933. o
   0  10   6      37.     933.     791. <
   1  10   6    3793.    5198.    1097. o
  -1  10   6    3896.    4088.     709. o
   2  10   6   13975.   16368.    1353. o
  -2  10   6   14159.   17128.     776. o
   3  10   6    1750.    2067.    1500. <
  -3  10   6    1719.    1347.     721. <
   4  10   6    4332.    6002.    2267. o
  -4  10   6    4263.    3024.     793. o
   5  10   6    2270.    3343.    2078. <
  -5  10   6    2265.    3177.     802. o
  -6  10   6   11334.   13417.     831. o
  -7  10   6     856.    1417.     945. <
   0  12   6    2899.    3190.     815. o
   1  12   6    3000.    5718.    1131. o
  -1  12   6    3057.    4088.     743. o
   2  12   6   15799.   14810.    1363. o
  -2  12   6   15835.   16148.     838. o
   3  12   6    3072.    2693.    1524. <
  -3  12   6    3038.    2504.     745. o
   4  12   6    8230.    8320.    2045. o
  -4  12   6    8219.    6760.     807. o
   5  12   6    1347.    3921.    1983. <
  -5  12   6    1362.    2126.     744. o
  -6  12   6   12903.   16503.     870. o
  -7  12   6     754.    1972.     873. o
   0  14   6   90164.   95396.     903. o
   1  14   6    4057.    2906.     875. o
  -1  14   6    4177.    5033.     767. o
   2  14   6  113743.  122799.    1584. o
  -2  14   6  113241.  101363.    1276. o
   3  14   6    1466.    2197.    1559. <
  -3  14   6    1407.    2776.    1003. o
   4  14   6   44630.   55112.    1869. o
  -4  14   6   44891.   47903.     834. o
   5  14   6    1330.      83.    2421. <
  -5  14   6    1314.    2445.     850. o
  -6  14   6   34069.   34905.     867. o
  -7  14   6     418.    1134.     956. <
   0  16   6   68790.   70551.     917. o
   1  16   6    1588.     945.     874. <
  -1  16   6    1688.    1158.     768. <
   2  16   6   56089.   63674.    1336. o
  -2  16   6   55781.   39760.    1038. o
   3  16   6     490.    2598.    1594. <
  -3  16   6     437.     520.    1004. <
   4  16   6   38168.   42793.    1785. o
  -4  16   6   38173.   29212.     993. o
  -5  16   6    1174.    1961.     803. o
  -6  16   6   18972.   13269.     993. o
  -7  16   6     351.     413.     862. <
   0  18   6    1255.    2433.     814. o
   1  18   6    2694.    1335.     910. <
  -1  18   6    2745.    2126.     875. o
   2  18   6   12647.   13078.    1524. o
  -2  18   6   12615.   10287.     813. o
   3  18   6    1273.     850.    1595. <
  -3  18   6    1252.    1075.     945. <
   4  18   6    5937.    5341.    1572. o
  -4  18   6    5869.    6357.     980. o
  -5  18   6     811.     768.     921. <
  -6  18   6   12721.    9587.    1025. o
   0  20   6     136.     177.     768. <
   1  20   6    2042.    3484.     944. o
  -1  20   6    2088.    2374.     838. o
   2  20   6     843.    2894.    1322. o
  -2  20   6     846.     850.    1087. <
   3  20   6    2089.    1914.    1382. <
  -3  20   6    2053.    2977.    1074. o
   4  20   6    2453.    2752.    1500. <
  -4  20   6    2488.    3402.    1086. o
  -5  20   6    1018.     283.    1146. <
  -6  20   6    2683.    3437.     932. o
   0  22   6   93016.   94790.    1005. o
   1  22   6    5753.    7361.     918. o
  -1  22   6    5865.    6878.     920. o
   2  22   6   85598.   89892.    1790. o
  -2  22   6   85559.   89924.    1228. o
   3  22   6    2282.    4642.    1546. o
  -3  22   6    2255.    2918.    1110. o
   4  22   6   48645.   56415.    1653. o
  -4  22   6   49076.   55061.    1201. o
  -5  22   6    2748.    3284.    1181. o
  -6  22   6   25607.   29402.    1098. o
   0  24   6   24515.   22669.     994. o
   1  24   6    5450.    7255.    1049. o
  -1  24   6    5505.    5353.     886. o
   2  24   6   14956.   12630.    1613. o
  -2  24   6   15007.   16900.    1033. o
   3  24   6    2156.    2445.    1594. <
  -3  24   6    2132.    1134.    1004. <
   4  24   6   10532.   12115.    1498. o
  -4  24   6   10555.   13357.    1055. o
  -5  24   6    2324.    1890.    1111. <
  -6  24   6    5096.    6604.    1168. o
   0  26   6   16684.   17139.     944. o
   1  26   6     975.    1087.    1016. <
  -1  26   6    1000.    2091.     968. o
   2  26   6   19565.   20407.    1689. o
  -2  26   6   19624.   20940.    1236. o
   3  26   6    1147.    1606.    1464. <
  -3  26   6    1132.    2020.    1086. <
   4  26   6   15236.   13739.    1635. o
  -4  26   6   15379.   16484.    1072. o
  -5  26   6     829.     484.    1075. <
  -6  26   6   11112.   13273.    1081. o
   0  28   6   13046.   13089.     946. o
   1  28   6    3163.    3662.    1051. o
  -1  28   6    3224.    3627.    1039. o
   2  28   6    9669.    9397.    1584. o
  -2  28   6    9666.   14042.    1241. o
   3  28   6    1661.    2622.    1511. <
  -3  28   6    1639.    2114.    1063. <
   4  28   6    6831.    4927.    2896. <
  -4  28   6    6882.    6499.    1135. o
  -5  28   6    1188.    1134.    1016. <
   0  30   6   72373.   79212.    1037. o
   1  30   6    1489.    1890.    1051. <
  -1  30   6    1535.    2091.    1004. o
   2  30   6   58144.   61992.    1587. o
  -2  30   6   57978.   63739.    1318. o
   3  30   6     594.    3071.    1558. <
  -3  30   6     559.    1890.    1039. <
  -4  30   6   39868.   44792.    1210. o
  -5  30   6     932.     -71.    1157. <
   0  32   6     646.    2764.    1085. o
   1  32   6     364.     779.    1134. <
  -1  32   6     395.    1346.    1086. <
   2  32   6    1347.    1571.    1512. <
  -2  32   6    1352.    1890.    1181. <
   3  32   6      91.    -142.    1453. <
  -3  32   6      98.    -531.    1004. <
  -4  32   6    1308.    2669.    1109. o
  -5  32   6     245.    -921.    1122. <
   0  34   6    1965.    3331.    1133. o
   1  34   6    1458.    3130.    1192. o
  -1  34   6    1477.    2563.    1074. o
   2  34   6    3171.    4761.    1475. o
  -2  34   6    3127.    4961.    1132. o
   3  34   6    1038.    1594.    1665. <
  -3  34   6    1021.     697.    1134. <
  -4  34   6    4812.    4584.    1193. o
   0  36   6   22049.   20751.    1130. o
   1  36   6    1467.     661.    1146. <
  -1  36   6    1501.     921.    1016. <
   2  36   6   14994.   13988.    1481. o
  -2  36   6   14944.   14401.    1042. o
   3  36   6     730.     945.    1736. <
  -3  36   6     708.    1429.    1169. <
  -4  36   6   11961.   14420.    1198. o
   0  38   6   30287.   29997.    1174. o
   1  38   6    1834.    1500.    1146. <
  -1  38   6    1860.    1087.    1075. <
   2  38   6   25891.   20766.    1652. o
  -2  38   6   25961.   26034.    1230. o
  -3  38   6     827.    1772.    1086. <
   0  40   6     802.     319.    1016. <
   1  40   6    1311.    1429.    1122. <
  -1  40   6    1317.    1169.    1051. <
   2  40   6     854.    1169.    1571. <
  -2  40   6     847.     -94.    1087. <
   0  42   6     814.     933.    1051. <
   1  42   6     595.    1453.    1086. <
  -1  42   6     613.    1039.    1039. <
   0   1   7    3713.    4986.    1026. o
   1   1   7   72293.   83674.    1108. o
  -1   1   7   72595.   74348.     828. o
   2   1   7    1068.    1465.    1216. <
  -2   1   7    1032.    1405.     578. o
   3   1   7   42834.   47469.    1419. o
  -3   1   7   42488.   42498.     664. o
   4   1   7    2054.    3827.    1700. o
  -4   1   7    2085.    2185.     590. o
   5   1   7   32657.   41302.    2270. o
  -5   1   7   32667.   35843.     680. o
  -6   1   7     404.    1866.     684. o
   0   3   7    5614.    8011.    1024. o
   1   3   7    4872.    4537.    1040. o
  -1   3   7    4794.    5293.     755. o
   2   3   7     836.    1594.    1228. <
  -2   3   7     817.    2197.     637. o
   3   3   7    7324.    9809.    1449. o
  -3   3   7    7301.    9643.     617. o
   4   3   7    3280.    4820.    1700. o
  -4   3   7    3293.    2493.     615. o
   5   3   7   10750.   17399.    2246. o
  -5   3   7   10683.   10957.     684. o
  -6   3   7     334.    2079.     696. o
   0   5   7    2256.    4347.     919. o
   1   5   7    2143.    1441.    1134. <
  -1   5   7    2173.    2929.     720. o
   2   5   7    2636.    3449.    1252. o
  -2   5   7    2576.    1394.     580. o
   3   5   7    2346.    3839.    1440. o
  -3   5   7    2428.    4701.     634. o
   4   5   7    2944.    2457.    1689. <
  -4   5   7    3004.    2138.     627. o
   5   5   7    5356.    6368.    2339. o
  -5   5   7    5365.    6321.     683. o
  -6   5   7     960.    2185.     696. o
   0   7   7    7797.    9148.     942. o
   1   7   7  107550.  114467.    1266. o
  -1   7   7  108151.  108026.     923. o
   2   7   7    4622.    2989.    1289. o
  -2   7   7    4587.    4312.     674. o
   3   7   7   62714.   72280.    1528. o
  -3   7   7   62533.   65712.     658. o
   4   7   7    4292.    6368.    1758. o
  -4   7   7    4331.    4962.     649. o
   5   7   7   46231.   58434.    2061. o
  -5   7   7   46465.   38268.     838. o
  -6   7   7    1613.    1677.     791. o
   0   9   7   10911.    8358.     730. o
   1   9   7   23824.   25307.    1175. o
  -1   9   7   23915.   23462.     785. o
   2   9   7    1012.    3531.    1262. o
  -2   9   7    1001.    2398.     743. o
   3   9   7   13790.   16413.    1506. o
  -3   9   7   13721.   14390.     682. o
   4   9   7    6662.    9465.    1710. o
  -4   9   7    6630.    5814.     699. o
   5   9   7   10900.   15224.    2025. o
  -5   9   7   10971.    8783.     682. o
  -6   9   7     956.    2587.     778. o
   0  11   7    2220.    2752.     767. o
   1  11   7   21487.   22923.    1200. o
  -1  11   7   21459.   20887.     832. o
   2  11   7     978.    1394.    1311. <
  -2  11   7     956.     283.     780. <
   3  11   7   18736.   25798.    1545. o
  -3  11   7   18870.   22336.     755. o
   4  11   7    2452.    1996.    1878. <
  -4  11   7    2482.     661.     686. <
   5  11   7   17711.   19644.    1994. o
  -5  11   7   17678.   16202.     824. o
  -6  11   7     675.     555.     886. <
   0  13   7    1298.    2161.     791. o
   1  13   7   13420.   14686.    1083. o
  -1  13   7   13480.   14237.     789. o
   2  13   7    5007.    5459.    1311. o
  -2  13   7    4926.    5494.     802. o
   3  13   7    6263.    7622.    1747. o
  -3  13   7    6181.    7432.     801. o
   4  13   7    1883.    3177.    1700. <
  -4  13   7    1967.     732.     662. <
   5  13   7    5911.    4407.    1821. o
  -5  13   7    5911.    4194.     865. o
  -6  13   7    1290.    1346.     862. <
   0  15   7    4875.    6416.     812. o
   1  15   7   88654.   95228.    1258. o
  -1  15   7   88906.   89903.     976. o
   2  15   7     344.    1252.    1358. <
  -2  15   7     327.    2161.     708. o
   3  15   7   58054.   63036.    1698. o
  -3  15   7   57715.   63670.     703. o
   4  15   7    2647.    4276.    1771. o
  -4  15   7    2642.    3166.     956. o
   5  15   7   42506.   51888.    1953. o
  -5  15   7   42466.   43935.     942. o
  -6  15   7     221.    1842.     932. <
   0  17   7    4412.    5222.     849. o
   1  17   7    3645.    3308.    1123. o
  -1  17   7    3668.    1902.     805. o
   2  17   7     139.    2055.    1369. <
  -2  17   7     167.    1122.     815. <
   3  17   7    1962.    3248.    1641. <
  -3  17   7    1941.    1547.     792. <
   4  17   7    2131.    2634.    1701. <
  -4  17   7    2107.    3319.    1074. o
   5  17   7    3197.    4938.    1723. o
  -5  17   7    3176.    3544.    1146. o
   0  19   7     839.    1122.     898. <
   1  19   7    7229.    4928.    1232. o
  -1  19   7    7155.    6700.     864. o
   2  19   7    3477.    5292.    1558. o
  -2  19   7    3419.    3225.     827. o
   3  19   7    7850.   12573.    1598. o
  -3  19   7    7912.    7563.     769. o
   4  19   7    1532.     366.    1618. <
  -4  19   7    1594.    1252.     945. <
   5  19   7    9875.   13663.    1778. o
  -5  19   7    9795.    9667.    1182. o
   0  21   7    2329.    3473.     849. o
   1  21   7   23008.   16116.    1039. o
  -1  21   7   23134.   24296.     915. o
   2  21   7    3234.    3792.    1571. o
  -2  21   7    3188.    3308.     779. o
   3  21   7   14052.   13077.    1575. o
  -3  21   7   13980.   10854.     910. o
   4  21   7    2082.    3413.    1700. o
  -4  21   7    2141.    1465.    1158. <
  -5  21   7   10880.   15614.    1179. o
   0  23   7    8842.   10566.     905. o
   1  23   7   57633.   40350.    1344. o
  -1  23   7   57827.   49128.    1059. o
   2  23   7     674.    -142.    1559. <
  -2  23   7     689.    1346.     850. <
   3  23   7   37000.   39114.    1657. o
  -3  23   7   36974.   40416.    1056. o
   4  23   7    4912.    5978.    1688. o
  -4  23   7    4881.    4017.    1159. o
  -5  23   7   23325.   24478.    1272. o
   0  25   7    2752.    3189.     980. o
   1  25   7    1900.    1394.    1028. <
  -1  25   7    1883.    1760.     980. <
   2  25   7    1102.     709.    1606. <
  -2  25   7    1094.    3803.     919. o
   3  25   7    2439.    3284.    1500. o
  -3  25   7    2496.    6048.    1189. o
   4  25   7    1726.    4713.    1652. o
  -4  25   7    1714.    1465.    1028. <
   0  27   7     323.     -59.     992. <
   1  27   7    3658.    1264.    1088. <
  -1  27   7    3649.    3296.     957. o
   2  27   7    2708.    2705.    1465. <
  -2  27   7    2661.    2776.     909. o
   3  27   7    4025.    4442.    1559. o
  -3  27   7    4075.    5647.    1215. o
   4  27   7    1344.     732.    1606. <
  -4  27   7    1403.   -1299.    1075. <
   0  29   7    2859.    2244.     957. o
   1  29   7   40534.   27333.    1254. o
  -1  29   7   40619.   41719.    1115. o
   2  29   7     992.    4205.    1451. o
  -2  29   7     976.    2126.     932. o
   3  29   7   27021.   26367.    1494. o
  -3  29   7   26950.   33525.    1271. o
   4  29   7    1838.    1878.    1594. <
  -4  29   7    1847.    2776.    1110. o
   0  31   7    1801.    1098.    1063. <
   1  31   7   17473.   10903.    1155. o
  -1  31   7   17540.   19348.    1032. o
   2  31   7      76.      24.    1441. <
  -2  31   7      89.    1039.    1039. <
   3  31   7   11907.   10379.    1551. o
  -3  31   7   11778.   12198.    1299. o
   0  33   7     225.    1453.    1074. <
   1  33   7    3109.    1831.    1087. <
  -1  33   7    3060.    2162.    1028. o
   2  33   7     562.     744.    1464. <
  -2  33   7     552.    2043.    1051. <
   3  33   7    3827.    5280.    1570. o
  -3  33   7    3845.    5458.    1227. o
   0  35   7    1027.      12.    1063. <
   1  35   7    1105.    -224.    1098. <
  -1  35   7    1099.     354.    1051. <
   2  35   7    1497.    -307.    1370. <
  -2  35   7    1471.    2256.     980. o
   0  37   7    2218.    4099.    1061. o
   1  37   7   25022.   20018.    1277. o
  -1  37   7   25106.   25450.    1051. o
   0   0   8   81832.  103343.    1442. o
   1   0   8    2642.    3237.    1346. o
  -1   0   8    2587.    4548.    1156. o
   2   0   8   44402.   50532.    1891. o
  -2   0   8   44553.   29994.    1103. o
   3   0   8    2783.    5044.    2054. o
  -3   0   8    2784.    2528.     839. o
   4   0   8   55373.   58948.    2589. o
  -4   0   8   54963.   52643.    1006. o
   5   0   8     452.    3567.    2869. <
  -5   0   8     466.     968.     886. <
   0   2   8    1779.    5327.    1000. o
   1   2   8    1439.    1193.     933. <
  -1   2   8    1408.    3673.     979. o
   2   2   8    6632.    5164.    1302. o
  -2   2   8    6579.    5565.     688. o
   3   2   8    1677.    5008.    1344. o
  -3   2   8    1697.    1417.     662. o
   4   2   8    2338.    3130.    1712. <
  -4   2   8    2330.    1843.     650. o
   5   2   8     497.    -201.    2256. <
  -5   2   8     506.    1004.     685. <
   0   4   8   25932.   27437.    1031. o
   1   4   8    1781.     283.    1052. <
  -1   4   8    1766.    1205.     733. <
   2   4   8    3993.    6828.    1272. o
  -2   4   8    3919.    5517.     682. o
   3   4   8    1557.    4122.    1439. o
  -3   4   8    1571.    1677.     673. o
   4   4   8   18384.   22600.    1760. o
  -4   4   8   18424.   15079.     730. o
   5   4   8     921.    1453.    2090. <
  -5   4   8     911.     661.     685. <
   0   6   8   18585.   22900.     920. o
   1   6   8    3888.    5895.    1061. o
  -1   6   8    3859.    3272.     745. o
   2   6   8   12892.   14648.    1319. o
  -2   6   8   12982.   14897.     747. o
   3   6   8    3470.    6036.    1474. o
  -3   6   8    3474.    2953.     615. o
   4   6   8   13032.   12401.    1739. o
  -4   6   8   12994.    8783.     714. o
   5   6   8    1381.     697.    2114. <
  -5   6   8    1381.    1949.     696. o
   0   8   8   71763.   84288.     796. o
   1   8   8    3265.    4524.    1180. o
  -1   8   8    3217.    3863.     791. o
   2   8   8   48240.   48315.    1410. o
  -2   8   8   48508.   53556.     701. o
   3   8   8    4196.    5978.    1593. o
  -3   8   8    4224.    4867.     779. o
   4   8   8   40810.   47260.    1842. o
  -4   8   8   40715.   45018.     702. o
   5   8   8     977.      71.    2161. <
  -5   8   8     992.     744.     685. <
   0  10   8    7100.    7693.    1098. o
   1  10   8    2542.    2563.    1181. o
  -1  10   8    2514.    3059.     826. o
   2  10   8     669.     968.    1323. <
  -2  10   8     631.     283.     744. <
   3  10   8    2587.    3414.    1500. o
  -3  10   8    2593.    4040.     778. o
   4  10   8    5543.    8766.    1816. o
  -4  10   8    5615.    3686.     712. o
   5  10   8     913.    2362.    2055. <
  -5  10   8     909.     614.     709. <
   0  12   8    8487.    6855.    1020. o
   1  12   8    2039.    1146.     993. <
  -1  12   8    2035.    1299.     827. <
   2  12   8    2348.    3733.    1357. o
  -2  12   8    2320.     933.     745. <
   3  12   8    1341.    3874.    1510. o
  -3  12   8    1349.    1654.     827. <
   4  12   8    7022.    9027.    1865. o
  -4  12   8    7008.    9807.     831. o
   5  12   8    1044.    3283.    1771. <
  -5  12   8    1035.     945.     756. <
   0  14   8   47914.   35726.    1066. o
   1  14   8    1852.     413.    1252. <
  -1  14   8    1819.    1217.     744. <
   2  14   8   31486.   34596.    1413. o
  -2  14   8   31558.   34065.     875. o
   3  14   8    1966.    2268.    1583. <
  -3  14   8    1989.    3284.     837. o
   4  14   8   29044.   30113.    1664. o
  -4  14   8   28833.   33244.     807. o
   0  16   8   20709.   15769.     901. o
   1  16   8    1522.    1370.    1228. <
  -1  16   8    1473.     248.     851. <
   2  16   8   24134.   26150.    1339. o
  -2  16   8   24100.   27357.     886. o
   3  16   8    2074.    5256.    1793. o
  -3  16   8    2087.    4335.     753. o
   4  16   8   15240.   18918.    1811. o
  -4  16   8   15128.   18290.     906. o
   0  18   8    6711.    4147.     925. o
   1  18   8     695.     555.    1276. <
  -1  18   8     690.     531.     791. <
   2  18   8    1833.    3095.    1570. <
  -2  18   8    1774.     307.     792. <
   3  18   8     751.    2067.    1771. <
  -3  18   8     760.     921.     898. <
   4  18   8    7048.   10185.    1543. o
  -4  18   8    7015.    7657.     861. o
   0  20   8      42.    -791.     850. <
   1  20   8    1986.    1429.    1429. <
  -1  20   8    1976.     567.     863. <
   2  20   8     313.    -590.    1630. <
  -2  20   8     310.    1264.     815. <
   3  20   8    1357.    2339.    1653. <
  -3  20   8    1362.    2327.     826. o
   4  20   8     932.     118.    1665. <
  -4  20   8     922.    1795.     968. <
   0  22   8   39608.   43549.    1011. o
   1  22   8    2870.    2126.    1264. <
  -1  22   8    2823.    2232.     886. o
   2  22   8   35150.   33771.    1559. o
  -2  22   8   35313.   31514.     948. o
   3  22   8    3031.    5658.    1474. o
  -3  22   8    3044.    5694.     930. o
   0  24   8    6531.    5884.    1005. o
   1  24   8    1393.    -484.    1370. <
  -1  24   8    1375.    1772.     968. <
   2  24   8    8977.   10565.    1711. o
  -2  24   8    8974.    6712.     950. o
   3  24   8    1947.    1394.    1559. <
  -3  24   8    1953.    3732.     955. o
   0  26   8   10936.    6926.    1060. o
   1  26   8    1452.    2386.    1417. <
  -1  26   8    1449.    1913.     874. o
   2  26   8    7204.    6617.    1596. o
  -2  26   8    7245.    7220.     993. o
   0  28   8    3655.    3674.    1075. o
   1  28   8    1515.    1429.    1583. <
  -1  28   8    1498.     850.    1028. <
   2  28   8    4324.    5470.    1440. o
  -2  28   8    4342.    3107.     993. o
   0  30   8   26236.   17382.    1212. o
   1  30   8     915.    2256.    1370. <
  -1  30   8     893.     685.    1039. <
   0   1   9    1893.    1642.    1122. <
   1   1   9   23283.   26989.    1270. o
  -1   1   9   23056.   26724.    1029. o
   2   1   9    1970.     661.    1347. <
  -2   1   9    2003.     213.     851. <
   3   1   9   18897.   24965.    1549. o
  -3   1   9   18986.   17255.     744. o
   0   3   9     525.     756.    1146. <
   1   3   9    2774.    7205.    1235. o
  -1   3   9    2787.    2977.     980. o
   2   3   9    1501.     390.    1240. <
  -2   3   9    1523.      94.     756. <
   3   3   9    5204.    4029.    1525. o
  -3   3   9    5179.    2434.     771. o
   0   5   9    3030.    1843.    1146. <
   1   5   9     475.    4488.    1131. o
  -1   5   9     493.    1252.    1086. <
   2   5   9    1890.    3130.    1086. o
  -2   5   9    1922.     496.     815. <
   3   5   9    1808.    1228.    1500. <
  -3   5   9    1819.     614.     768. <
   0   7   9    2918.    2811.    1181. o
   1   7   9   37637.   41540.    1319. o
  -1   7   9   37419.   39224.    1096. o
   2   7   9    2392.    3484.    1334. o
  -2   7   9    2424.    1914.     815. o
   3   7   9   29540.   35480.    1697. o
  -3   7   9   29794.   24124.     931. o
   0   9   9     995.    1252.     957. <
   1   9   9    8312.    9915.    1297. o
  -1   9   9    8242.   10328.    1011. o
   2   9   9    3539.    4997.    1345. o
  -2   9   9    3551.    2126.     746. o
   3   9   9    6460.    8318.    1569. o
  -3   9   9    6530.    4703.     854. o
   0  11   9    1440.    1299.    1075. <
   1  11   9    8015.   10446.    1164. o
  -1  11   9    8059.    6169.     831. o
   2  11   9    1577.    2776.    1393. <
  -2  11   9    1594.     898.     815. <
   3  11   9    9704.    9525.    1489. o
  -3  11   9    9687.    3203.     838. o
   0  13   9    2540.     106.    1217. <
   1  13   9    3253.    3308.    1205. o
  -1  13   9    3202.    1666.     887. <
   2  13   9     710.    1842.    1417. <
  -2  13   9     761.     697.     874. <
   0  15   9    1291.     520.    1087. <
   1  15   9   31315.   36664.    1141. o
  -1  15   9   31106.   11529.     999. o
   2  15   9    2564.    3709.    1346. o
  -2  15   9    2582.     791.     839. <
   0  17   9     208.     248.    1134. <
   1  17   9     658.    2232.    1369. <
  -1  17   9     642.    1004.     933. <
   0  19   9    1718.    2740.    1251. o
   1  19   9    3692.    3780.    1382. o
  -1  19   9    3736.    2493.     970. o

loop_
 _twin_refln_datum_id
 _twin_refln_individual_id
 _twin_refln_index_h
 _twin_refln_index_k
 _twin_refln_index_l
 _twin_refln_F_squared_calc
 _twin_refln_F_squared_meas
 _twin_refln_F_squared_sigma
 _twin_refln_include_status
 ? ? ? ? ? ? ? ? ?

