data_global 


# 1. PROCESSING SUMMARY (IUCr Office Use Only)

_journal_date_recd_electronic            ?
_journal_date_to_coeditor                ?
_journal_date_from_coeditor              ?
_journal_date_accepted                   ?
_journal_date_printers_first             ?
_journal_date_printers_final             ?
_journal_date_proofs_out                 ?
_journal_date_proofs_in                  ?
_journal_coeditor_name                   ?
_journal_coeditor_code                   ?
_journal_coeditor_notes
; ?
;
_journal_techeditor_code                 ?
_journal_paper_category                  ?
_journal_techeditor_notes
; ?
;
_journal_coden_ASTM                      ?
_journal_name_full                       ?
_journal_year                            ?
_journal_volume                          ?
_journal_issue                           ?
_journal_page_first                      ?
_journal_page_last                       ?
_journal_suppl_publ_number               ?
_journal_suppl_publ_pages                ?

#=======================================================================

# 2. SUBMISSION DETAILS

_publ_contact_author_name                'Mercouri G. Kanatzidis'
_publ_contact_author_address
;    Department of Chemistry
     2145 Sheridan Road
   Northwestern University
   Evanston, IL 60208-3113
           USA
;
_publ_contact_author_email               m-kanatzidis@northwestern.edu
_publ_contact_author_fax                 '847-491-5937'
_publ_contact_author_phone               '847-467-1541'
_publ_requested_category                 ?

_publ_contact_letter
; ?
;

#=======================================================================

# 3. TITLE AND AUTHOR LIST

_publ_section_title
; ?
;
_publ_section_title_footnote
; ?
;
loop_
 _publ_author_name
 _publ_author_footnote
 _publ_author_address
; ?      # name
;
; ?      # footnote
;
; ?      # address
;

#=======================================================================

# 4. TEXT

_publ_section_synopsis
; ?
;
_publ_section_abstract
; ?
;
_publ_section_comment
; ?
;
_publ_section_introduction
; ?
;
_publ_section_experimental
; ?
;
_publ_section_exptl_prep
; ?
;
_publ_section_exptl_refinement
; ?
;
_publ_section_exptl_solution
; ?
;
_publ_section_discussion
; ?
;
_publ_section_acknowledgements
; ?
;
_publ_section_references
;
Petricek, V., Dusek, M. & Palatinus L. (2014). Z. Kristallogr. 229(5), 345-352.

Palatinus L. & Chapuis G. (2007). J. Appl. Cryst. 40, 786-790.

# enable this reference if Diamond ver. 2 was used for visualization
#Brandenburg, K. (1999). DIAMOND. Version. 2.1c.
#Crystal Impact GbR, Bonn, Germany.

# enable this reference if Diamond ver. 3 was used for visualization
#Brandenburg, K. & Putz, H. (2005). DIAMOND Version 3.
#Crystal Impact GbR, Postfach 1251, D-53002 Bonn, Germany.

# enable this reference if SIR97 was used for solving of the structure
#Altomare, A., Burla, M. C., Camalli, M., Cascarano, G., Giacovazzo, C.,
#Guagliardi, A., Moliterni, A. G. G., Polidori, G., Spagna, R. (1997).
#SIR97. A Package for Crystal Structure Solution by Direct Methods
#and Refinement, Bari, Rome, Italy.

# use this reference if SIR2002 was used for solving of the structure
#Burla, M.C., Camalli, M., Carrozzini, B., Cascarano, G., Giacovazzo, C.,
#Polidori, G., Spagna, R.
#SIR2002: the program, J. Appl. Cryst, (2003). 36, 1103


# use this reference if SIR2011 was used for solving of the structure
#Burla, M.C., Caliandro, R., Camalli, M., Carrozzini, B., Cascarano,
#G.L., Giacovazzo, C., Mallamo. M., Mazzone, A., Polidori, G., Spagna, R.
#SIR2011: a new package for crystal structure determination and refinement,
#J.Appl.Cryst. (2012) 45, 357-361

# enable this reference if bond valences were calculated
#Brown, I. D. (1996). J. Appl. Cryst. 29, 479-480.

# enable this reference if Xshape wase used for crystal shape refinement
#Stoe & Cie (1998). X-SHAPE. Stoe & Cie, Darmstadt, Germany.


# enable this reference if Flack coefficient was refined
#Flack, H. D. (1983). Acta Cryst. A39, 876-881.
;
_publ_section_figure_captions
; ?
;
_publ_section_table_legends
; ?
;
data_II
#=======================================================================

# 5. CHEMICAL DATA

_chemical_name_systematic
; ?
;
_chemical_name_common                    'Ethylammonium Lead Chloride'
_chemical_formula_moiety                 4(C2H5NH3),Pb3Cl10 
_chemical_formula_structural             ?
_chemical_formula_analytical             ?
_chemical_formula_iupac                  ?
_chemical_formula_sum                    'C8 H32 Cl10 N4 Pb3'
_chemical_formula_weight                 1160.5
_chemical_melting_point                  ?
_chemical_compound_source                ?
_chemical_absolute_configuration         ?

#=======================================================================

# 6. CRYSTAL DATA

_symmetry_cell_setting                   orthorhombic
_symmetry_space_group_name_H-M           'A 21 m a'
_symmetry_space_group_name_Hall          'A 2xa;-2y;-2za'
_symmetry_Int_Tables_number              36

loop_
 _space_group_symop_id
 _space_group_symop_operation_xyz
 1   x,y,z
 2   x+1/2,-y,-z
 3   x+1/2,y,-z
 4   x,-y,z
 5   x,y+1/2,z+1/2
 6   x+1/2,-y+1/2,-z+1/2
 7   x+1/2,y+1/2,-z+1/2
 8   x,-y+1/2,z+1/2

_cell_length_a                           8.024(8)
_cell_length_b                           45.498(7)
_cell_length_c                           8.08(3)
_cell_angle_alpha                        90
_cell_angle_beta                         90
_cell_angle_gamma                        90
_cell_volume                             2949(12)

loop_
 _twin_individual_id
 _twin_individual_mass_fraction_refined
 _twin_individual_twin_matrix_11
 _twin_individual_twin_matrix_12
 _twin_individual_twin_matrix_13
 _twin_individual_twin_matrix_21
 _twin_individual_twin_matrix_22
 _twin_individual_twin_matrix_23
 _twin_individual_twin_matrix_31
 _twin_individual_twin_matrix_32
 _twin_individual_twin_matrix_33
1 0.45(9)
1 0 0
0 1 0
0 0 1
2 0.55(9)
-1 0 0
0 -1 0
0 0 -1

_cell_formula_units_Z                    4

_cell_measurement_reflns_used            629
_cell_measurement_theta_min              3.60
_cell_measurement_theta_max              27.99
_cell_measurement_temperature            293
_cell_special_details
; ?
;

_exptl_crystal_density_diffrn            2.6136
_exptl_crystal_density_meas              ?
_exptl_crystal_density_method            ?
_exptl_crystal_F_000                     2096

_exptl_absorpt_coefficient_mu            17.994
_exptl_crystal_description               plate
_exptl_crystal_size_max                  0.0860 
_exptl_crystal_size_mid                  0.0753 
_exptl_crystal_size_min                  0.0337 
_exptl_crystal_size_rad                  ?
_exptl_crystal_colour                    colorless
_exptl_absorpt_correction_type           integration
_exptl_absorpt_process_details           ?
_exptl_absorpt_correction_T_min  0.0963
_exptl_absorpt_correction_T_max  0.3865
loop_
 _exptl_crystal_face_index_h
 _exptl_crystal_face_index_k
 _exptl_crystal_face_index_l
 _exptl_crystal_face_perp_dist
 ? ? ? ?

#=======================================================================

# 7. EXPERIMENTAL DATA

_exptl_special_details                   ?

_diffrn_ambient_temperature              293
_diffrn_source                           'sealed X-ray tube, 12 x 0.4 mm long-fine focus'
_diffrn_source_power                     2.00
_diffrn_source_voltage                   50
_diffrn_source_current                   40
_diffrn_radiation_type                   'Mo K\a'
_diffrn_radiation_source                 'X-ray tube'
_diffrn_radiation_wavelength             0.71073
_diffrn_radiation_monochromator          graphite
_diffrn_measurement_device               'four-circle diffractometer'
_diffrn_measurement_device_type          'IPDS Stoe'
_diffrn_detector                         'image plate (34 cm diameter)'
_diffrn_detector_area_resol_mean         6.67
_diffrn_measurement_method               'rotation method'
_diffrn_measurement_specimen_support     ?

_diffrn_reflns_number                    6096
_diffrn_reflns_theta_min                 2.86
_diffrn_reflns_theta_max                 29.21
_diffrn_reflns_theta_full                29.21
_diffrn_measured_fraction_theta_max      0.95
_diffrn_measured_fraction_theta_full     0.95
_diffrn_reflns_av_R_equivalents          0.1312
_diffrn_reflns_av_unetI/netI             0.0701
_diffrn_reflns_limit_h_min               -10
_diffrn_reflns_limit_h_max               5
_diffrn_reflns_limit_k_min               -51
_diffrn_reflns_limit_k_max               62
_diffrn_reflns_limit_l_min               -11
_diffrn_reflns_limit_l_max               10
_diffrn_reflns_reduction_process         ?

_diffrn_standards_number                 ?
_diffrn_standards_interval_count         ?
_diffrn_standards_interval_time          ?
_diffrn_standards_decay_%                ?
loop_
_diffrn_standard_refln_index_h
_diffrn_standard_refln_index_k
_diffrn_standard_refln_index_l
  ? ? ?

_diffrn_radiation_probe                  X-ray

#=======================================================================

# 8. REFINEMENT DATA

_refine_special_details
; ?
;

_reflns_number_total                     1920
_reflns_number_gt                        1269
_reflns_threshold_expression             'I>2\s(I)'

_refine_ls_structure_factor_coef         Fsqd
_refine_ls_R_factor_gt                   0.0762
_refine_ls_wR_factor_gt                  0.1384
_refine_ls_R_factor_all                  0.1124
_refine_ls_wR_factor_ref                 0.1441
_refine_ls_goodness_of_fit_ref           2.50
_refine_ls_goodness_of_fit_gt            2.99
_refine_ls_restrained_S_gt               ?
_refine_ls_restrained_S_all              ?
_refine_ls_number_reflns                 1920
_refine_ls_number_parameters             86
_refine_ls_number_restraints             6
_refine_ls_number_constraints            69
_refine_ls_weighting_scheme              sigma
_refine_ls_weighting_details             'w=1/(\s^2^(I)+0.0004I^2^)'
_refine_ls_hydrogen_treatment            'constr'
_refine_ls_shift/su_max                  0.0388
_refine_ls_shift/su_mean                 0.0030
_refine_diff_density_max                 3.76
_refine_diff_density_min                 -2.82
_refine_ls_extinction_method
 'B-C type 1 Gaussian isotropic (Becker & Coppens, 1974)'
_refine_ls_extinction_coef               1330(140)
_refine_ls_abs_structure_details
;  544 of Friedel pairs used in the refinement
;
_refine_ls_abs_structure_Flack            0.55(9)
_refine_ls_abs_structure_Rogers          ?

loop_
 _atom_type_symbol
 _atom_type_scat_dispersion_real
 _atom_type_scat_dispersion_imag
 _atom_type_scat_source
 C    0.0033  0.0016
 'International Tables Vol C tables 4.2.6.8 and 6.1.1.1'
 H    0.0000  0.0000
 'International Tables Vol C tables 4.2.6.8 and 6.1.1.1'
 Cl   0.1484  0.1585
 'International Tables Vol C tables 4.2.6.8 and 6.1.1.1'
 N    0.0061  0.0033
 'International Tables Vol C tables 4.2.6.8 and 6.1.1.1'
 Pb  -3.3944 10.1111
 'International Tables Vol C tables 4.2.6.8 and 6.1.1.1'

_computing_data_collection               ?
_computing_cell_refinement               ?
_computing_data_reduction                ?
_computing_structure_solution            ?
_computing_structure_refinement          ?
_computing_molecular_graphics            ?
_computing_publication_material          ?

loop_
 _restr_distance_atom_site_label_1
 _restr_distance_site_symmetry_1
 _restr_distance_atom_site_label_2
 _restr_distance_site_symmetry_2
 _restr_distance_target
 _restr_distance_target_weight_param
N1 . C1 . 1.5 0.001
C1 . C2 . 1.5 0.001
N2 . C3 . 1.5 0.001
C3 . C4 . 1.5 0.001

loop_
 _restr_angle_atom_site_label_1
 _restr_angle_site_symmetry_1
 _restr_angle_atom_site_label_2
 _restr_angle_site_symmetry_2
 _restr_angle_atom_site_label_3
 _restr_angle_site_symmetry_3
 _restr_angle_target
 _restr_angle_target_weight_param
N1 . C1 . C2 . 108.47 0.01
N2 . C3 . C4 . 108.47 0.01

loop_
 _restr_torsion_atom_site_label_1
 _restr_torsion_site_symmetry_1
 _restr_torsion_atom_site_label_2
 _restr_torsion_site_symmetry_2
 _restr_torsion_atom_site_label_3
 _restr_torsion_site_symmetry_3
 _restr_torsion_atom_site_label_4
 _restr_torsion_site_symmetry_4
 _restr_torsion_angle_target
 _restr_torsion_weight_param
 ? ? ? ? ? ? ? ? ? ?

loop_
 _restr_equal_distance_atom_site_label_1
 _restr_equal_distance_site_symmetry_1
 _restr_equal_distance_atom_site_label_2
 _restr_equal_distance_site_symmetry_2
 _restr_equal_distance_class_class_id
 _restr_equal_distance_class_target_weight_param
 ? ? ? ? ? ?

loop_
 _restr_equal_angle_atom_site_label_1
 _restr_equal_angle_site_symmetry_1
 _restr_equal_angle_atom_site_label_2
 _restr_equal_angle_site_symmetry_2
 _restr_equal_angle_atom_site_label_3
 _restr_equal_angle_site_symmetry_3
 _restr_equal_angle_class_class_id
 _restr_equal_angle_class_target_weight_param
 ? ? ? ? ? ? ? ?

loop_
 _restr_equal_torsion_atom_site_label_1
 _restr_equal_torsion_site_symmetry_1
 _restr_equal_torsion_atom_site_label_2
 _restr_equal_torsion_site_symmetry_2
 _restr_equal_torsion_atom_site_label_3
 _restr_equal_torsion_site_symmetry_3
 _restr_equal_torsion_atom_site_label_4
 _restr_equal_torsion_site_symmetry_4
 _restr_equal_torsion_class_class_id
 _restr_equal_torsion_class_target_weight_param
 ? ? ? ? ? ? ? ? ? ?


#=======================================================================

# 9. ATOMIC COORDINATES AND DISPLACEMENT PARAMETERS

loop_
 _atom_site_label
 _atom_site_type_symbol
 _atom_site_fract_x
 _atom_site_fract_y
 _atom_site_fract_z
 _atom_site_adp_type
 _atom_site_U_iso_or_equiv
 _atom_site_site_symmetry_multiplicity
 _atom_site_occupancy
 _atom_site_calc_flag
 _atom_site_refinement_flags
 _atom_site_disorder_assembly
 _atom_site_disorder_group
  Pb1 Pb 0.0236(3) 0.5 0.2615(3) Uani 0.0366(8) 4 1 d . . .
  Pb2 Pb -0.0043(3) 0.36569(2) 0.2509(2) Uani 0.0379(4) 8 1 d . . .
  Cl1 Cl 0.229(3) 0.3694(4) -0.006(3) Uani 0.066(5) 8 1 d . . .
  Cl2 Cl 0.238(3) 0.3518(4) 0.503(2) Uani 0.069(5) 8 1 d . . .
  Cl3 Cl 0.011(4) 0.4375(3) 0.2250(17) Uani 0.085(6) 8 1 d . . .
  Cl4 Cl 0.225(5) 0.5 -0.0393(18) Uani 0.070(11) 4 1 d . . .
  Cl5 Cl 0.012(5) 0.3093(3) 0.1842(11) Uani 0.101(9) 8 1 d . . .
  Cl6 Cl 0.310(4) 0.5 0.434(2) Uani 0.088(13) 4 1 d . . .
  N1 N 0.494(12) 0.6821(8) 0.219(6) Uiso 0.101(10) 8 1 d . . .
  C1 C 0.520(8) 0.7142(7) 0.254(7) Uiso 0.101(10) 8 1 d . . .
  C2 C 0.661(9) 0.7171(16) 0.375(6) Uiso 0.101(10) 8 1 d . . .
  N2 N 0.090(9) 0.4433(14) -0.157(6) Uiso 0.123(15) 8 1 d . . .
  C3 C 0.075(9) 0.4298(15) -0.326(5) Uiso 0.123(15) 8 1 d . . .
  C4 C -0.062(10) 0.4075(16) -0.322(7) Uiso 0.123(15) 8 1 d . . .
  H1n1 H 0.589384 0.673066 0.220947 Uiso 0.1216 8 1 d . . .
  H2n1 H 0.428517 0.674631 0.293875 Uiso 0.1216 8 1 d . . .
  H3n1 H 0.448614 0.680073 0.12185 Uiso 0.1216 8 1 d . . .
  H1c1 H 0.420369 0.722304 0.301197 Uiso 0.1216 8 1 d . . .
  H2c1 H 0.548374 0.724165 0.153416 Uiso 0.1216 8 1 d . . .
  H1c2 H 0.617899 0.715593 0.486163 Uiso 0.1216 8 1 d . . .
  H2c2 H 0.7406 0.701809 0.35663 Uiso 0.1216 8 1 d . . .
  H3c2 H 0.713258 0.735916 0.361321 Uiso 0.1216 8 1 d . . .
  H1n2 H 0.192068 0.449033 -0.141076 Uiso 0.1477 8 1 d . . .
  H2n2 H 0.023155 0.45826 -0.149842 Uiso 0.1477 8 1 d . . .
  H3n2 H 0.063283 0.430287 -0.082619 Uiso 0.1477 8 1 d . . .
  H1c3 H 0.178209 0.420326 -0.354517 Uiso 0.1477 8 1 d . . .
  H2c3 H 0.04894 0.444831 -0.4053 Uiso 0.1477 8 1 d . . .
  H1c4 H -0.11653 0.406958 -0.428338 Uiso 0.1477 8 1 d . . .
  H2c4 H -0.016552 0.388465 -0.298149 Uiso 0.1477 8 1 d . . .
  H3c4 H -0.141658 0.412729 -0.23865 Uiso 0.1477 8 1 d . . .

loop_
 _atom_site_aniso_label
 _atom_site_aniso_type_symbol
 _atom_site_aniso_U_11
 _atom_site_aniso_U_22
 _atom_site_aniso_U_33
 _atom_site_aniso_U_12
 _atom_site_aniso_U_13
 _atom_site_aniso_U_23
 Pb1 Pb 0.0377(19) 0.0359(9) 0.0361(8) 0 0.003(2) 0
 Pb2 Pb 0.0375(9) 0.0419(7) 0.0344(5) 0.0009(9) -0.0004(14) -0.0016(9)
 Cl1 Cl 0.029(11) 0.118(11) 0.052(5) 0.012(11) 0.018(7) 0.004(10)
 Cl2 Cl 0.036(10) 0.124(12) 0.047(4) -0.042(13) -0.005(6) -0.011(13)
 Cl3 Cl 0.103(14) 0.059(7) 0.092(8) -0.034(13) -0.054(13) 0.025(7)
 Cl4 Cl 0.10(3) 0.060(13) 0.047(13) 0 0.038(13) 0
 Cl5 Cl 0.20(3) 0.043(6) 0.062(5) -0.051(17) 0.006(15) 0.001(4)
 Cl6 Cl 0.11(3) 0.11(2) 0.047(9) 0 0.023(12) 0

loop_
 _jana_atom_site_ADP_C_label
 _jana_atom_site_ADP_C_type_symbol
 _jana_atom_site_ADP_C_111
 _jana_atom_site_ADP_C_112
 _jana_atom_site_ADP_C_113
 _jana_atom_site_ADP_C_122
 _jana_atom_site_ADP_C_123
 _jana_atom_site_ADP_C_133
 _jana_atom_site_ADP_C_222
 _jana_atom_site_ADP_C_223
 _jana_atom_site_ADP_C_233
 _jana_atom_site_ADP_C_333
 ? ? ? ? ? ? ? ? ? ? ? ?

loop_
 _jana_atom_site_ADP_D_label
 _jana_atom_site_ADP_D_type_symbol
 _jana_atom_site_ADP_D_1111
 _jana_atom_site_ADP_D_1112
 _jana_atom_site_ADP_D_1113
 _jana_atom_site_ADP_D_1122
 _jana_atom_site_ADP_D_1123
 _jana_atom_site_ADP_D_1133
 _jana_atom_site_ADP_D_1222
 _jana_atom_site_ADP_D_1223
 _jana_atom_site_ADP_D_1233
 _jana_atom_site_ADP_D_1333
 _jana_atom_site_ADP_D_2222
 _jana_atom_site_ADP_D_2223
 _jana_atom_site_ADP_D_2233
 _jana_atom_site_ADP_D_2333
 _jana_atom_site_ADP_D_3333
 ? ? ? ? ? ? ? ? ? ? ? ? ? ? ? ? ?

loop_
 _jana_atom_site_ADP_E_label
 _jana_atom_site_ADP_E_type_symbol
 _jana_atom_site_ADP_E_11111
 _jana_atom_site_ADP_E_11112
 _jana_atom_site_ADP_E_11113
 _jana_atom_site_ADP_E_11122
 _jana_atom_site_ADP_E_11123
 _jana_atom_site_ADP_E_11133
 _jana_atom_site_ADP_E_11222
 _jana_atom_site_ADP_E_11223
 _jana_atom_site_ADP_E_11233
 _jana_atom_site_ADP_E_11333
 _jana_atom_site_ADP_E_12222
 _jana_atom_site_ADP_E_12223
 _jana_atom_site_ADP_E_12233
 _jana_atom_site_ADP_E_12333
 _jana_atom_site_ADP_E_13333
 _jana_atom_site_ADP_E_22222
 _jana_atom_site_ADP_E_22223
 _jana_atom_site_ADP_E_22233
 _jana_atom_site_ADP_E_22333
 _jana_atom_site_ADP_E_23333
 _jana_atom_site_ADP_E_33333
 ? ? ? ? ? ? ? ? ? ? ? ? ? ? ? ? ? ? ? ? ? ? ?

loop_
 _jana_atom_site_ADP_F_label
 _jana_atom_site_ADP_F_type_symbol
 _jana_atom_site_ADP_F_111111
 _jana_atom_site_ADP_F_111112
 _jana_atom_site_ADP_F_111113
 _jana_atom_site_ADP_F_111122
 _jana_atom_site_ADP_F_111123
 _jana_atom_site_ADP_F_111133
 _jana_atom_site_ADP_F_111222
 _jana_atom_site_ADP_F_111223
 _jana_atom_site_ADP_F_111233
 _jana_atom_site_ADP_F_111333
 _jana_atom_site_ADP_F_112222
 _jana_atom_site_ADP_F_112223
 _jana_atom_site_ADP_F_112233
 _jana_atom_site_ADP_F_112333
 _jana_atom_site_ADP_F_113333
 _jana_atom_site_ADP_F_122222
 _jana_atom_site_ADP_F_122223
 _jana_atom_site_ADP_F_122233
 _jana_atom_site_ADP_F_122333
 _jana_atom_site_ADP_F_123333
 _jana_atom_site_ADP_F_133333
 _jana_atom_site_ADP_F_222222
 _jana_atom_site_ADP_F_222223
 _jana_atom_site_ADP_F_222233
 _jana_atom_site_ADP_F_222333
 _jana_atom_site_ADP_F_223333
 _jana_atom_site_ADP_F_233333
 _jana_atom_site_ADP_F_333333
 ? ? ? ? ? ? ? ? ? ? ? ? ? ? ? ? ? ? ? ? ? ? ? ? ? ? ? ? ? ?


#=======================================================================

# 10. MOLECULAR GEOMETRY


loop_
 _geom_bond_atom_site_label_1
 _geom_bond_atom_site_label_2
 _geom_bond_site_symmetry_1
 _geom_bond_site_symmetry_2
 _geom_bond_distance
 _geom_bond_publ_flag
  Pb1 Cl3 . . 2.859(12) ?
  Pb1 Cl3 . 4_565 2.859(12) ?
  Pb1 Cl4 . . 2.92(3) ?
  Pb1 Cl4 . 2_465 2.99(3) ?
  Pb1 Cl6 . . 2.69(3) ?
  Pb1 Cl6 . 2_466 3.00(3) ?
  Pb2 Cl1 . . 2.80(3) ?
  Pb2 Cl1 . 3_455 2.92(3) ?
  Pb2 Cl2 . . 2.88(2) ?
  Pb2 Cl2 . 3_456 2.94(2) ?
  Pb2 Cl3 . . 3.278(12) ?
  Pb2 Cl5 . . 2.625(13) ?
  Cl1 N1 . 2_465 3.47(7) ?
  Cl1 N1 . 4_565 3.65(7) ?
  Cl1 N2 . . 3.75(7) ?
  Cl2 N1 . 2_466 3.36(7) ?
  Cl2 N1 . 4_565 3.44(7) ?
  Cl3 N2 . . 3.16(6) ?
  Cl3 N2 . 3_455 3.43(8) ?
  Cl4 N2 . . 2.96(7) ?
  Cl4 N2 . 4_565 2.96(7) ?
  Cl5 N1 . 2_465 3.28(6) ?
  Cl5 N1 . 4_565 3.89(10) ?
  N1 C1 . . 1.50(5) ?
  N1 H1n1 . . 0.87 ?
  N1 H2n1 . . 0.87 ?
  N1 H3n1 . . 0.87 ?
  C1 C2 . . 1.50(9) ?
  C1 H1c1 . . 0.96 ?
  C1 H2c1 . . 0.96 ?
  C2 H1c2 . . 0.96 ?
  C2 H2c2 . . 0.96 ?
  C2 H3c2 . . 0.96 ?
  N2 C3 . . 1.50(7) ?
  N2 H1n2 . . 0.87 ?
  N2 H2n2 . . 0.87 ?
  N2 H3n2 . . 0.87 ?
  C3 C4 . . 1.50(11) ?
  C3 H1c3 . . 0.96 ?
  C3 H2c3 . . 0.96 ?
  C4 H1c4 . . 0.96 ?
  C4 H2c4 . . 0.96 ?
  C4 H3c4 . . 0.96 ?

loop_
 _geom_angle_atom_site_label_1
 _geom_angle_atom_site_label_2
 _geom_angle_atom_site_label_3
 _geom_angle_site_symmetry_1
 _geom_angle_site_symmetry_2
 _geom_angle_site_symmetry_3
 _geom_angle
 _geom_angle_publ_flag
  Cl3 Pb1 Cl3 . . 4_565 167.5(5) ?
  Cl3 Pb1 Cl4 . . . 86.2(5) ?
  Cl3 Pb1 Cl4 . . 2_465 84.8(6) ?
  Cl3 Pb1 Cl6 . . . 94.8(6) ?
  Cl3 Pb1 Cl6 . . 2_466 93.7(5) ?
  Cl3 Pb1 Cl4 4_565 . . 86.2(5) ?
  Cl3 Pb1 Cl4 4_565 . 2_465 84.8(6) ?
  Cl3 Pb1 Cl6 4_565 . . 94.8(6) ?
  Cl3 Pb1 Cl6 4_565 . 2_466 93.7(5) ?
  Cl4 Pb1 Cl4 . . 2_465 86.8(9) ?
  Cl4 Pb1 Cl6 . . . 87.6(8) ?
  Cl4 Pb1 Cl6 . . 2_466 178.8(9) ?
  Cl4 Pb1 Cl6 2_465 . . 174.4(7) ?
  Cl4 Pb1 Cl6 2_465 . 2_466 92.0(8) ?
  Cl6 Pb1 Cl6 . . 2_466 93.6(8) ?
  Cl1 Pb2 Cl1 . . 3_455 89.1(7) ?
  Cl1 Pb2 Cl2 . . . 94.9(7) ?
  Cl1 Pb2 Cl2 . . 3_456 170.2(5) ?
  Cl1 Pb2 Cl3 . . . 82.4(6) ?
  Cl1 Pb2 Cl5 . . . 82.7(7) ?
  Cl1 Pb2 Cl2 3_455 . . 170.0(5) ?
  Cl1 Pb2 Cl2 3_455 . 3_456 87.5(6) ?
  Cl1 Pb2 Cl3 3_455 . . 85.8(6) ?
  Cl1 Pb2 Cl5 3_455 . . 87.4(8) ?
  Cl2 Pb2 Cl2 . . 3_456 87.1(6) ?
  Cl2 Pb2 Cl3 . . . 103.8(6) ?
  Cl2 Pb2 Cl5 . . . 84.0(7) ?
  Cl2 Pb2 Cl3 3_456 . . 106.5(6) ?
  Cl2 Pb2 Cl5 3_456 . . 88.0(8) ?
  Cl3 Pb2 Cl5 . . . 163.7(5) ?
  Pb2 Cl1 Pb2 . . 3_555 171.5(8) ?
  Pb2 Cl1 N1 . . 2_465 88.0(13) ?
  Pb2 Cl1 N1 . . 4_565 89.0(13) ?
  Pb2 Cl1 N2 . . . 95.6(11) ?
  Pb2 Cl1 N1 3_555 . 2_465 91.3(14) ?
  Pb2 Cl1 N1 3_555 . 4_565 82.7(13) ?
  Pb2 Cl1 N2 3_555 . . 92.8(11) ?
  N1 Cl1 N1 2_465 . 4_565 97.5(14) ?
  N1 Cl1 N2 2_465 . . 106.4(15) ?
  N1 Cl1 N2 4_565 . . 155.8(16) ?
  Pb2 Cl2 Pb2 . . 3_556 154.8(6) ?
  Pb2 Cl2 N1 . . 2_466 100.3(15) ?
  Pb2 Cl2 N1 . . 4_565 91.8(13) ?
  Pb2 Cl2 N1 3_556 . 2_466 93.2(14) ?
  Pb2 Cl2 N1 3_556 . 4_565 97.4(15) ?
  N1 Cl2 N1 2_466 . 4_565 126.0(12) ?
  Pb1 Cl3 Pb2 . . . 170.4(5) ?
  Pb1 Cl3 N2 . . . 90.7(12) ?
  Pb1 Cl3 N2 . . 3_455 88.6(12) ?
  Pb2 Cl3 N2 . . . 98.7(12) ?
  Pb2 Cl3 N2 . . 3_455 92.8(12) ?
  N2 Cl3 N2 . . 3_455 92.0(17) ?
  Pb1 Cl4 Pb1 . . 2_565 160.5(11) ?
  Pb1 Cl4 N2 . . . 93.7(14) ?
  Pb1 Cl4 N2 . . 4_565 93.7(14) ?
  Pb1 Cl4 N2 2_565 . . 95.8(14) ?
  Pb1 Cl4 N2 2_565 . 4_565 95.8(14) ?
  N2 Cl4 N2 . . 4_565 122(2) ?
  Pb2 Cl5 N1 . . 2_465 94.9(7) ?
  Pb2 Cl5 N1 . . 4_565 86.4(11) ?
  N1 Cl5 N1 2_465 . 4_565 96(2) ?
  Pb1 Cl6 Pb1 . . 2_566 156.1(10) ?
  Cl1 N1 Cl1 2_565 . 4_565 68.6(9) ?
  Cl1 N1 Cl2 2_565 . 2_566 72.8(15) ?
  Cl1 N1 Cl2 2_565 . 4_565 110.6(11) ?
  Cl1 N1 Cl5 2_565 . 2_565 64.1(12) ?
  Cl1 N1 Cl5 2_565 . 4_565 124.9(18) ?
  Cl1 N1 C1 2_565 . . 132(5) ?
  Cl1 N1 H1n1 2_565 . . 37.81 ?
  Cl1 N1 H2n1 2_565 . . 114.11 ?
  Cl1 N1 H3n1 2_565 . . 72.92 ?
  Cl1 N1 Cl2 4_565 . 2_566 112.2(11) ?
  Cl1 N1 Cl2 4_565 . 4_565 72.3(15) ?
  Cl1 N1 Cl5 4_565 . 2_565 67.0(12) ?
  Cl1 N1 Cl5 4_565 . 4_565 56.6(13) ?
  Cl1 N1 C1 4_565 . . 143(5) ?
  Cl1 N1 H1n1 4_565 . . 102.61 ?
  Cl1 N1 H2n1 4_565 . . 75.1 ?
  Cl1 N1 H3n1 4_565 . . 40.43 ?
  Cl2 N1 Cl2 2_566 . 4_565 72.3(11) ?
  Cl2 N1 Cl5 2_566 . 2_565 134(3) ?
  Cl2 N1 Cl5 2_566 . 4_565 132.3(19) ?
  Cl2 N1 C1 2_566 . . 104(4) ?
  Cl2 N1 H1n1 2_566 . . 41.99 ?
  Cl2 N1 H2n1 2_566 . . 72.94 ?
  Cl2 N1 H3n1 2_566 . . 143.03 ?
  Cl2 N1 Cl5 4_565 . 2_565 138(3) ?
  Cl2 N1 Cl5 4_565 . 4_565 60.1(15) ?
  Cl2 N1 C1 4_565 . . 113(4) ?
  Cl2 N1 H1n1 4_565 . . 107.54 ?
  Cl2 N1 H2n1 4_565 . . 3.68 ?
  Cl2 N1 H3n1 4_565 . . 107.67 ?
  Cl5 N1 Cl5 2_565 . 4_565 87.8(19) ?
  Cl5 N1 C1 2_565 . . 94(3) ?
  Cl5 N1 H1n1 2_565 . . 91.98 ?
  Cl5 N1 H2n1 2_565 . . 139.73 ?
  Cl5 N1 H3n1 2_565 . . 30.29 ?
  Cl5 N1 C1 4_565 . . 93(4) ?
  Cl5 N1 H1n1 4_565 . . 157.33 ?
  Cl5 N1 H2n1 4_565 . . 59.41 ?
  Cl5 N1 H3n1 4_565 . . 62.03 ?
  C1 N1 H1n1 . . . 109.47 ?
  C1 N1 H2n1 . . . 109.47 ?
  C1 N1 H3n1 . . . 109.47 ?
  H1n1 N1 H2n1 . . . 109.47 ?
  H1n1 N1 H3n1 . . . 109.47 ?
  H2n1 N1 H3n1 . . . 109.47 ?
  N1 C1 C2 . . . 108(5) ?
  N1 C1 H1c1 . . . 109.47 ?
  N1 C1 H2c1 . . . 109.47 ?
  C2 C1 H1c1 . . . 109.47 ?
  C2 C1 H2c1 . . . 109.47 ?
  H1c1 C1 H2c1 . . . 110.45 ?
  C1 C2 H1c2 . . . 109.47 ?
  C1 C2 H2c2 . . . 109.47 ?
  C1 C2 H3c2 . . . 109.47 ?
  H1c2 C2 H2c2 . . . 109.47 ?
  H1c2 C2 H3c2 . . . 109.47 ?
  H2c2 C2 H3c2 . . . 109.47 ?
  Cl1 N2 Cl3 . . . 70.6(12) ?
  Cl1 N2 Cl3 . . 3_555 72.0(14) ?
  Cl1 N2 Cl4 . . . 125(2) ?
  Cl1 N2 C3 . . . 87(4) ?
  Cl1 N2 H1n2 . . . 86.7 ?
  Cl1 N2 H2n2 . . . 149.87 ?
  Cl1 N2 H3n2 . . . 40.41 ?
  Cl3 N2 Cl3 . . 3_555 110.3(19) ?
  Cl3 N2 Cl4 . . . 80.3(14) ?
  Cl3 N2 C3 . . . 147(4) ?
  Cl3 N2 H1n2 . . . 93.89 ?
  Cl3 N2 H2n2 . . . 82.8 ?
  Cl3 N2 H3n2 . . . 38.65 ?
  Cl3 N2 Cl4 3_555 . . 75.9(18) ?
  Cl3 N2 C3 3_555 . . 84(4) ?
  Cl3 N2 H1n2 3_555 . . 28.36 ?
  Cl3 N2 H2n2 3_555 . . 132.62 ?
  Cl3 N2 H3n2 3_555 . . 107.54 ?
  Cl4 N2 C3 . . . 133(4) ?
  Cl4 N2 H1n2 . . . 48.95 ?
  Cl4 N2 H2n2 . . . 61.26 ?
  Cl4 N2 H3n2 . . . 117.36 ?
  C3 N2 H1n2 . . . 109.47 ?
  C3 N2 H2n2 . . . 109.47 ?
  C3 N2 H3n2 . . . 109.47 ?
  H1n2 N2 H2n2 . . . 109.47 ?
  H1n2 N2 H3n2 . . . 109.47 ?
  H2n2 N2 H3n2 . . . 109.47 ?
  N2 C3 C4 . . . 108(5) ?
  N2 C3 H1c3 . . . 109.47 ?
  N2 C3 H2c3 . . . 109.47 ?
  C4 C3 H1c3 . . . 109.47 ?
  C4 C3 H2c3 . . . 109.47 ?
  H1c3 C3 H2c3 . . . 110.45 ?
  C3 C4 H1c4 . . . 109.47 ?
  C3 C4 H2c4 . . . 109.47 ?
  C3 C4 H3c4 . . . 109.47 ?
  H1c4 C4 H2c4 . . . 109.47 ?
  H1c4 C4 H3c4 . . . 109.47 ?
  H2c4 C4 H3c4 . . . 109.47 ?

loop_
 _geom_torsion_atom_site_label_1
 _geom_torsion_atom_site_label_2
 _geom_torsion_atom_site_label_3
 _geom_torsion_atom_site_label_4
 _geom_torsion_site_symmetry_1
 _geom_torsion_site_symmetry_2
 _geom_torsion_site_symmetry_3
 _geom_torsion_site_symmetry_4
 _geom_torsion
 _geom_torsion_publ_flag
 ? ? ? ? ? ? ? ? ? ?

loop_
 _geom_hbond_atom_site_label_D
 _geom_hbond_atom_site_label_H
 _geom_hbond_atom_site_label_A
 _geom_hbond_site_symmetry_D
 _geom_hbond_site_symmetry_H
 _geom_hbond_site_symmetry_A
 _geom_hbond_distance_DH
 _geom_hbond_distance_HA
 _geom_hbond_distance_DA
 _geom_hbond_angle_DHA
 _geom_hbond_publ_flag
 ? ? ? ? ? ? ? ? ? ? ?


#=======================================================================

# 11. STRUCTURE-FACTOR LIST

loop_
 _refln_index_h
 _refln_index_k
 _refln_index_l
 _refln_F_squared_calc
 _refln_F_squared_meas
 _refln_F_squared_sigma
 _refln_observed_status
  -2  12   0   24140.   24552.    1545. o
  -2  14   0  201226.  283603.    1966. o
  -2  16   0  335516.  478414.    1117. o
  -2  18   0   28913.   35538.    3535. o
  -2  20   0    2937.   14914.    3452. o
  -4  20   0   14661.   13098.    1365. o
  -4  22   0  198561.  281611.    5384. o
  -4  24   0   21185.   37929.    2537. o
  -6  24   0   12317.    8064.    1203. o
  -2  26   0   44351.   45795.    1905. o
  -4  26   0   39740.   64519.    3964. o
  -6  26   0   31127.   42026.    1602. o
  -8  26   0   18511.   10336.    1626. o
   2  28   0   22419.   20254.    2138. o
  -2  28   0   22612.   19714.    1739. o
  -6  28   0   12876.   16801.    2192. o
  -8  28   0    2702.    2126.    1276. <
   2  30   0  180744.  182653.    3306. o
  -2  30   0  181389.  171069.    2464. o
  -4  30   0  124360.  128470.    1841. o
  -6  30   0   57565.  134831.    4049. o
  -8  30   0   14965.    9931.    1441. o
   2  32   0   12180.   10846.    2391. o
  -2  32   0   12043.    6185.    1887. o
  -4  32   0   15744.   11992.    1781. o
  -6  32   0    5802.    6806.    1547. o
   2  34   0   18311.   17950.    2509. o
  -2  34   0   18516.   17753.    1813. o
  -4  34   0   12629.   11469.    1669. o
  -6  34   0   14082.   14898.    1795. o
   2  36   0   63048.   71734.    2930. o
  -2  36   0   63215.   65861.    1794. o
  -4  36   0   35736.   34670.    1677. o
  -6  36   0   20290.   19565.    1776. o
   2  38   0   63508.   68779.    2760. o
  -2  38   0   63214.   70196.    1661. o
  -4  38   0   51068.   49774.    1742. o
  -6  38   0   21217.   23917.    1789. o
   2  40   0   12456.   12366.    2495. o
  -2  40   0   12657.   14592.    1461. o
  -4  40   0    6920.    6476.    1572. o
  -6  40   0    9158.   10211.    1712. o
   2  42   0    1964.     602.    2103. <
  -2  42   0    1939.    1370.    1642. <
  -4  42   0    3989.    6474.    1521. o
  -6  42   0    4974.    6368.    1712. o
   0  44   0   53894.   57236.    1752. o
   2  44   0   42876.   25866.    2338. o
  -2  44   0   42770.   43075.    1776. o
  -4  44   0   28324.   28644.    1644. o
   0  46   0   38102.   41008.    1903. o
   2  46   0   21201.     142.    2183. <
  -2  46   0   21406.   17310.    1692. o
  -4  46   0   19219.   18061.    1577. o
   0  48   0     346.     154.    1760. <
  -2  48   0    2192.    2965.    1618. <
  -4  48   0    2559.    2386.    1477. <
   0  50   0    1677.    1843.    1890. <
  -2  50   0    1377.    2067.    1594. <
   0  52   0   43390.   48356.    1887. o
  -2  52   0   32437.   35267.    1713. o
   0  54   0    3441.    6686.    1769. o
   1   1   1  447723.  398368.    5877. o
  -1   1   1  445623.  366414.    5901. o
  -2   1   1    5253.    -509.    2615. <
  -8   1   1     305.    1429.    2102. <
  -9   1   1   13182.   12011.    2201. o
   0   3   1      18.     720.    1996. <
   1   3   1   34681.   29642.    2530. o
  -1   3   1   34548.   29323.    2302. o
  -2   3   1    9660.    4004.    2432. <
  -8   3   1     223.    2468.    1995. <
  -9   3   1   16083.   20610.    2034. o
   0   5   1    1150.     733.    1584. <
   1   5   1    1703.     875.    2411. <
  -1   5   1    1673.     437.    1395. <
  -2   5   1    6049.   11667.    2503. o
  -8   5   1      62.    4346.    2041. o
  -9   5   1    8012.   11616.    1945. o
   0   7   1     901.    2918.    1701. <
   1   7   1  616250.  627499.    6543. o
  -1   7   1  621692.  574066.    5367. o
  -2   7   1    5151.    5630.    2105. o
  -8   7   1     372.     626.    1807. <
  -9   7   1   17627.   20411.    1968. o
   0   9   1      35.     579.    1712. <
   1   9   1   97289.  113237.    3576. o
  -1   9   1   98026.   84199.    2417. o
  -2   9   1   18562.   15977.    2260. o
  -3   9   1   88345.   79687.    2580. o
  -8   9   1    1341.    2858.    1866. <
  -9   9   1    4783.    3816.    1903. o
   0  11   1      85.     366.    1653. <
   1  11   1   76752.   59779.    3455. o
  -1  11   1   75779.   64671.    2220. o
  -2  11   1    1018.    5871.    1319. o
  -3  11   1   82175.   73330.    2265. o
  -7  11   1   42949.   39926.    2621. o
  -8  11   1      20.    1949.    1806. <
  -9  11   1   20110.   23017.    1848. o
   0  13   1   34154.   37580.    1856. o
   1  13   1   30784.   28723.    2996. o
  -1  13   1   30773.   30092.    1933. o
  -2  13   1    1358.    5741.    1414. o
  -3  13   1   43249.   40696.    2073. o
  -4  13   1    4801.   12681.    2959. o
  -7  13   1   11258.   11633.    1773. o
  -8  13   1     799.    1087.    1712. <
  -9  13   1    3837.    1725.    1785. <
   0  15   1    9076.    7518.    1707. o
  -1  15   1  700936.  741768.   14825. o
  -2  15   1    4604.    2861.    1349. o
  -3  15   1  465509.  437858.    3908. o
  -4  15   1    4046.    1418.    1903. <
  -5  15   1  189430.  192812.    4057. o
  -6  15   1    1955.    2067.    1689. <
  -7  15   1   71508.   81414.    1689. o
  -8  15   1     511.    1583.    1641. <
  -9  15   1   18725.   21004.    1708. o
   0  17   1   14142.   15986.    1939. o
  -1  17   1   33432.   27436.    1659. o
  -2  17   1    7686.    5724.    1268. o
  -3  17   1   28403.   31496.    1068. o
  -4  17   1    6452.     485.    1752. <
  -5  17   1   15784.   13168.    1804. o
  -6  17   1    2829.    1843.    1713. <
  -7  17   1   10378.   10319.    1619. o
  -8  17   1    1353.    1677.    1453. <
  -9  17   1    4534.    5304.    1653. o
   0  19   1   13561.   10470.    1770. o
   1  19   1   51606.   50885.    4000. o
  -1  19   1   51855.   43030.    1689. o
  -2  19   1    1464.    5174.    1320. o
  -3  19   1   37897.   40733.    1320. o
  -4  19   1    3471.    9204.    1267. o
  -5  19   1   38975.   34015.    1818. o
  -6  19   1     574.    3921.    1605. o
  -7  19   1   26689.   27179.    1738. o
  -8  19   1     510.    1157.    1535. <
   0  21   1     194.    1701.    1570. <
   1  21   1  184828.  198774.    4587. o
  -1  21   1  185270.  194868.    1786. o
  -2  21   1    1359.    6355.    1271. o
  -3  21   1  122220.  131109.    1356. o
  -4  21   1     655.    5468.     975. o
  -5  21   1   49326.   44794.    1371. o
  -6  21   1     327.    1618.    1570. <
  -7  21   1   19119.   20441.    1593. o
  -8  21   1     161.     165.    1606. <
   0  23   1    1207.    2740.    1559. <
   1  23   1  165240.  169314.    4087. o
  -1  23   1  165055.  165382.    1900. o
  -2  23   1   14517.   12298.    1320. o
  -3  23   1  146812.  148046.    1622. o
  -4  23   1    5594.    1371.    1173. <
  -5  23   1   72422.   64059.    1320. o
  -6  23   1    3632.     662.    1159. <
  -7  23   1   32266.   23553.    1246. o
  -8  23   1    1675.    1902.    1488. <
   0  25   1       3.    2090.    2232. <
   1  25   1    5327.    5638.    2801. o
  -1  25   1    5306.    6595.    1334. o
  -2  25   1    1620.    1488.    1252. <
  -3  25   1   15407.   14272.    1305. o
  -4  25   1    1395.    1937.    1169. <
  -5  25   1   17484.   18234.    1216. o
  -6  25   1     264.    -189.     945. <
  -7  25   1   12934.   10061.    1213. o
  -8  25   1     330.     803.    1122. <
   0  27   1    3690.    6074.    2043. o
   1  27   1    5107.    5708.    2682. o
  -1  27   1    5119.    7599.    1308. o
   2  27   1    2932.    6840.    1698. o
  -2  27   1    2952.    7809.    1436. o
  -3  27   1   10323.   14261.    1350. o
  -4  27   1    1249.    3945.    1274. o
  -5  27   1   16422.   16112.    1243. o
  -6  27   1    1146.    1287.    1134. <
  -7  27   1   12635.   11231.    1021. o
  -8  27   1     614.    1559.     944. <
   0  29   1      91.    2079.    1960. <
   1  29   1  150273.  154835.    3393. o
  -1  29   1  150391.  158582.    2007. o
   2  29   1    2544.    1477.    1997. <
  -2  29   1    2530.    2953.    1287. o
  -3  29   1  114147.  126327.    1462. o
  -4  29   1     372.     685.    1216. <
  -5  29   1   57585.   65156.    1359. o
  -6  29   1     541.     142.    1193. <
  -7  29   1   24170.   12673.    1305. o
  -8  29   1      73.     -83.    1098. <
   0  31   1    3626.    4998.    1925. o
   1  31   1  144403.  177108.    2850. o
  -1  31   1  144551.  150180.    2085. o
   2  31   1    2492.    2552.    2091. <
  -2  31   1    2466.    1843.    1323. <
  -3  31   1  102148.  111590.    1474. o
  -4  31   1    2495.    1146.    1359. <
  -5  31   1   44975.   48401.    1501. o
  -6  31   1    1444.    1311.    1264. <
  -7  31   1   17082.   14451.    1380. o
   0  33   1     558.    1122.    1807. <
   1  33   1   10800.    8596.    2237. o
  -1  33   1   10850.    8266.    1294. o
   2  33   1      55.     118.    2480. <
  -2  33   1      56.    1819.    1476. <
  -3  33   1   10817.   14672.    1457. o
  -4  33   1     340.    -779.    1618. <
  -5  33   1   13937.   16814.    1446. o
  -6  33   1     108.    1996.    1488. <
  -7  33   1   11251.   13037.    1497. o
   0  35   1     719.    2539.    1877. <
   1  35   1    4209.    5695.    2303. o
  -1  35   1    4220.    4513.    1229. o
   2  35   1      70.    2645.    2633. <
  -2  35   1      65.     803.    1453. <
  -3  35   1    5385.    5116.    1524. o
  -4  35   1     392.    3059.    1534. <
  -5  35   1    4456.    6049.    1747. o
  -6  35   1     231.     685.    1783. <
  -7  35   1    3238.    5611.    1806. o
   0  37   1     699.    1783.    1783. <
   1  37   1  136269.  157221.    2754. o
  -1  37   1  136012.  135019.    1427. o
   2  37   1     673.    -343.    2610. <
  -2  37   1     664.      12.    1075. <
  -3  37   1  101078.   91745.    2095. o
  -4  37   1     904.    1063.    1205. <
  -5  37   1   48664.   54106.    1687. o
  -6  37   1     387.      47.    1677. <
  -7  37   1   19465.   22967.    1810. o
   0  39   1      32.     248.    1771. <
   1  39   1    6711.    5578.    1644. o
  -1  39   1    6702.    5401.    1172. o
   2  39   1    1156.     768.    2398. <
  -2  39   1    1147.    1157.    1110. <
  -3  39   1    6265.    7397.    1085. o
  -4  39   1     752.     413.    1465. <
  -5  39   1    3945.    8033.    1555. o
  -6  39   1      78.    1394.    1653. <
   0  41   1     196.    -236.    1748. <
   1  41   1   10698.   10604.    1572. o
  -1  41   1   10688.    8251.    1423. o
   2  41   1       3.     838.    1996. <
  -2  41   1       3.     968.    1098. <
  -3  41   1   12955.   11681.    1080. o
  -4  41   1      72.     472.    1086. <
  -5  41   1   13737.   12816.    1161. o
  -6  41   1      87.     898.    1086. <
   0  43   1       3.    -201.    1878. <
   1  43   1   15076.   16142.    1594. o
  -1  43   1   15065.   15906.    1417. o
   2  43   1     122.    3413.    2137. <
  -2  43   1     122.     189.    1157. <
  -3  43   1   11476.   11419.    1076. o
  -4  43   1      97.     -12.    1086. <
  -5  43   1    5944.    5577.    1147. o
   0  45   1       3.    1323.    1677. <
   1  45   1   53743.   62193.    1641. o
  -1  45   1   53824.   47758.    1790. o
   2  45   1     634.    1772.    1842. <
  -2  45   1     627.     -24.    1004. <
  -3  45   1   41558.   42260.    1131. o
  -4  45   1     151.    1275.    1063. <
  -5  45   1   22370.   25564.    1153. o
   0  47   1     136.    -378.    1701. <
   1  47   1    3957.    7100.    1532. o
  -1  47   1    3926.    4702.    1594. o
   2  47   1      26.     272.    1760. <
  -2  47   1      25.    -354.    1051. <
  -3  47   1    4341.    4678.    1027. o
  -4  47   1      45.     331.    1063. <
   0  49   1      26.     921.    1700. <
   1  49   1    1481.    2610.    1594. <
  -1  49   1    1492.    3839.    1558. o
   2  49   1      98.    -319.    1807. <
  -2  49   1      98.    1075.    1074. <
  -3  49   1    2048.    1524.    1028. <
  -4  49   1      37.     638.    1051. <
   0  51   1      11.     756.    1712. <
   1  51   1   19707.   24152.    1640. o
  -1  51   1   19719.   17647.    1650. o
   2  51   1     163.     709.    1748. <
  -2  51   1     160.    1157.    1145. <
  -3  51   1   15058.   14282.    1161. o
   0  53   1      21.    2173.    1889. <
   1  53   1   22641.   25848.    1703. o
  -1  53   1   22585.   23115.    1619. o
  -2  53   1      23.     331.    1157. <
   0   0   2  720127.  648477.    6029. o
   1   0   2    7989.    5115.    2263. o
  -1   0   2    8115.    4928.    1590. o
   2   0   2 1409340. 1642630.   31438. o
  -2   0   2 1405240. 1574080.   30331. o
  -3   0   2     147.    5928.    2206. o
  -4   0   2  258800.  265929.    3423. o
  -5   0   2     114.    1205.    2315. <
  -6   0   2  197263.  209743.    3169. o
  -7   0   2     103.     248.    2527. <
  -8   0   2   36815.   35682.    2718. o
  -9   0   2      48.    1323.    2468. <
   0   2   2   23096.   20648.     886. o
   1   2   2   16368.    9818.    1675. o
  -1   2   2   16561.    8447.    1033. o
   2   2   2   45493.   44723.    2335. o
  -2   2   2   45706.   47928.    1585. o
  -3   2   2     545.    4866.    1556. o
  -4   2   2   23155.   23993.    1728. o
  -5   2   2     283.     968.    1701. <
  -6   2   2   13944.   16182.    1876. o
  -7   2   2     269.     650.    1736. <
  -8   2   2    6854.   11674.    1765. o
  -9   2   2      46.    1063.    1748. <
   0   4   2   23560.   22037.    1010. o
   1   4   2    2428.    2884.    1489. <
  -1   4   2    2470.    3180.     933. o
   2   4   2  144458.  154806.    2772. o
  -2   4   2  144168.  151995.    2073. o
  -3   4   2    2723.    2741.    1512. <
  -4   4   2   24338.   24551.    1849. o
  -5   4   2     535.     839.    1724. <
  -6   4   2   89643.   90060.    2190. o
  -7   4   2     223.    1594.    1889. <
  -8   4   2   14519.   20078.    1818. o
  -9   4   2     143.     425.    1748. <
   0   6   2   59048.   54932.    1244. o
   1   6   2    7727.    6025.    1446. o
  -1   6   2    7832.    8466.    1064. o
   2   6   2  272377.  261762.    3542. o
  -2   6   2  271392.  265534.    2672. o
  -3   6   2    1342.    7902.    1422. o
  -4   6   2   52037.   50774.    1856. o
  -5   6   2     526.     449.    1713. <
  -6   6   2   44845.   41826.    2058. o
  -7   6   2     582.    1193.    1819. <
  -8   6   2   10371.   12424.    1829. o
  -9   6   2      60.    2362.    1877. <
   0   8   2   98630.   91717.    1610. o
   1   8   2   16610.   19850.    1209. o
  -1   8   2   16734.   18385.    1109. o
   2   8   2  437177.  427658.    4257. o
  -2   8   2  433819.  395030.    3599. o
  -3   8   2    5975.    8276.    1593. o
  -4   8   2  119654.  119584.    2157. o
  -5   8   2    2341.    3249.    1760. <
  -6   8   2  104990.  114235.    1992. o
  -7   8   2     762.     827.    1831. <
  -8   8   2   28163.   31826.    1819. o
  -9   8   2      66.    -921.    1889. <
   0  10   2    1572.     685.    1359. <
   1  10   2    3781.    3688.    1088. o
  -1  10   2    3865.    4304.    1347. o
   2  10   2   15802.   16994.    2380. o
  -2  10   2   15938.   14960.    1094. o
  -3  10   2     619.     106.    1606. <
  -4  10   2    8345.    8228.    1596. o
  -5  10   2     843.     874.    1476. <
  -6  10   2   33138.   33333.    1777. o
  -7  10   2     409.    2173.    1688. <
  -8  10   2    6848.   11875.    1741. o
  -9  10   2     117.     472.    1783. <
   0  12   2   21688.   24811.    1495. o
   1  12   2    3517.    3085.    1170. o
  -1  12   2    3608.    4315.    1193. o
   2  12   2   32047.   31632.    2451. o
  -2  12   2   31974.   30010.    1226. o
  -3  12   2    1114.    2870.    1086. o
  -4  12   2   21024.   15877.    1615. o
  -5  12   2     405.    -248.    1571. <
  -6  12   2   38727.   30914.    1852. o
  -7  12   2     531.     992.    1594. <
  -8  12   2   12832.   16800.    1669. o
  -9  12   2     115.    2539.    1605. <
   0  14   2  201563.  223976.    1396. o
   1  14   2     656.    1854.    1110. <
  -1  14   2     692.    2658.    1381. <
   2  14   2  452306.  390131.    5691. o
  -2  14   2  452064.  459526.    2074. o
  -3  14   2    2633.    1678.    1028. <
  -4  14   2  122674.  114437.    2088. o
  -5  14   2     302.    1110.    1488. <
  -6  14   2   84977.   91895.    1704. o
  -7  14   2     120.     898.    1512. <
  -8  14   2   21701.   23298.    1663. o
  -9  14   2      27.   -1665.    1629. <
   0  16   2  308153.  343718.    6847. o
   1  16   2    3037.     165.    1123. <
  -1  16   2    3125.     685.    1348. <
   2  16   2  349121.  304999.    5072. o
  -2  16   2  349245.  402969.    7677. o
  -3  16   2    1245.    1465.     992. <
  -4  16   2  142951.  123356.    1792. o
  -5  16   2      35.     201.    1275. <
  -6  16   2   54334.   57753.    1691. o
  -7  16   2     105.     697.    1464. <
  -8  16   2   21419.   23791.    1433. o
   0  18   2   17918.   15313.    1466. o
   1  18   2    6047.    6207.    1359. o
  -1  18   2    6080.    5817.    1396. o
  -2  18   2   35153.   35427.    1364. o
  -3  18   2    2370.    3568.    1157. o
  -4  18   2   18122.   14644.    1044. o
  -5  18   2     417.     461.     968. <
  -6  18   2   38049.   33925.    1589. o
  -7  18   2     143.    1086.    1500. <
  -8  18   2   11556.   12105.    1571. o
   0  20   2      73.    6129.    1424. o
   1  20   2    2423.    1051.    1465. <
  -1  20   2    2492.     118.    1430. <
   2  20   2   11702.   11703.    1538. o
  -2  20   2   11558.   15285.    1255. o
  -3  20   2     244.    2539.    1133. o
  -4  20   2    7788.    6490.    1125. o
  -5  20   2     161.     437.     898. <
  -6  20   2    8573.    6701.    1044. o
  -7  20   2     211.     838.    1441. <
  -8  20   2    6270.    8767.    1533. o
   0  22   2  242842.  260681.    1504. o
   1  22   2    4220.    2612.    1490. <
  -1  22   2    4306.    3439.    1383. o
   2  22   2  317400.  314152.    2934. o
  -2  22   2  315724.  338528.    6759. o
  -3  22   2    1218.    2728.    1133. o
  -4  22   2  135686.  133772.    1464. o
  -5  22   2    1189.     803.     992. <
  -6  22   2   66484.   63488.    1277. o
  -7  22   2     301.     213.    1087. <
  -8  22   2   25839.   25467.    1540. o
   0  24   2   17587.   19552.    1474. o
   1  24   2    5063.    7670.    1498. o
  -1  24   2    5088.    5614.    1276. o
  -2  24   2   30420.   36442.    1311. o
  -3  24   2    2475.    3556.    1050. o
  -4  24   2   17687.   22036.    1151. o
  -5  24   2    1182.     272.    1063. <
  -6  24   2   10789.    9339.    1068. o
  -7  24   2     397.    1819.    1062. <
  -8  24   2    4456.    6415.    1534. o
   0  26   2   41750.   45104.    1495. o
   1  26   2     423.    1913.    1511. <
  -1  26   2     446.     685.    1228. <
   2  26   2   30682.   29248.    1892. o
  -2  26   2   30444.   30554.    1268. o
  -3  26   2      98.     874.    1145. <
  -4  26   2   36519.   40298.    1128. o
  -5  26   2      74.    1394.    1086. <
  -6  26   2   29181.   33495.    1140. o
  -7  26   2     263.    -449.     862. <
  -8  26   2   16999.   16189.    1115. o
   0  28   2   22214.   25018.    1349. o
   1  28   2    1299.    1654.    2646. <
  -1  28   2    1316.    3673.    1227. o
  -2  28   2   35500.   37639.    1289. o
  -3  28   2    1515.    2327.    1157. o
  -4  28   2   18212.   17525.    1080. o
  -5  28   2     557.    1039.     980. <
  -6  28   2    7611.   12562.    1062. o
  -7  28   2     164.    -508.    1004. <
  -8  28   2    4985.    4915.    1607. o
   0  30   2  184389.  222268.    4348. o
   1  30   2     563.    2043.    1818. <
  -1  30   2     589.    1677.    1299. <
  -2  30   2  188478.  187123.    1766. o
  -3  30   2     385.     106.    1087. <
  -4  30   2  104713.  110412.    1247. o
  -5  30   2     298.    1523.    1122. <
  -6  30   2   43964.   50616.    1199. o
  -7  30   2      62.    1169.    1216. <
   0  32   2    9070.    6538.    1458. o
   1  32   2     710.    1276.    1771. <
  -1  32   2     732.     154.    1193. <
  -2  32   2   20377.   19493.    1199. o
  -3  32   2      80.    1098.    1193. <
  -4  32   2    6613.    6476.    1158. o
  -5  32   2     106.     980.    1216. <
  -6  32   2    7745.    5873.    1173. o
  -7  32   2      78.     -71.    1169. <
   0  34   2   14274.   13402.    1729. o
   1  34   2    2557.    3355.    1630. o
  -1  34   2    2574.    2126.    1205. <
  -2  34   2    8274.    7955.    1171. o
  -3  34   2     890.    1972.    1181. <
  -4  34   2   13921.   13256.    1185. o
  -5  34   2     252.     189.    1228. <
  -6  34   2   10002.   11689.    1261. o
  -7  34   2      87.     827.    1145. <
   0  36   2   62681.   60680.    1531. o
   1  36   2     327.    1228.    1559. <
  -1  36   2     344.     638.    1181. <
  -2  36   2   56347.   56750.    1409. o
  -3  36   2      91.    -283.    1193. <
  -4  36   2   35304.   33943.    1301. o
  -5  36   2      95.    -307.    1323. <
  -6  36   2   11576.   12577.    1392. o
   0  38   2   65698.   68951.    1495. o
   1  38   2    1251.    1453.    2433. <
  -1  38   2    1268.    1110.    1441. <
  -2  38   2   73882.   79767.    1301. o
  -3  38   2     474.    1594.    1216. <
  -4  38   2   38312.   41326.    1411. o
  -5  38   2     385.    1453.    1358. <
  -6  38   2   20192.   21987.    1543. o
   0  40   2    8702.   11039.    1307. o
   1  40   2    1216.    2374.    2409. <
  -1  40   2    1218.    -106.    1654. <
  -2  40   2    3744.    3213.    1453. o
  -3  40   2     619.    1795.    1334. <
  -4  40   2    9468.   11241.    1296. o
  -5  40   2     274.    -272.    1441. <
  -6  40   2    4980.    6462.    1629. o
   0  42   2     269.     886.    1145. <
   1  42   2     116.     283.    2232. <
  -1  42   2     125.    -413.    1370. <
  -2  42   2    1401.    1748.    1394. <
  -3  42   2       9.    -272.    1405. <
  -4  42   2    4087.    4300.    1417. o
  -5  42   2      78.     850.    1547. <
   0  44   2   45259.   50070.    1354. o
   1  44   2     790.    1559.    2386. <
  -1  44   2     800.    2457.    1369. <
   2  44   2   41821.   41670.    2087. o
  -2  44   2   41794.   37664.    1267. o
  -3  44   2     355.     791.    1382. <
  -4  44   2   27000.   32060.    1500. o
  -5  44   2     305.    1960.    1240. <
   0  46   2   20972.   23057.    1280. o
   1  46   2       5.     685.    2704. <
  -1  46   2       5.    -272.    1382. <
   2  46   2   26515.   27054.    1951. o
  -2  46   2   26588.   27210.    1180. o
  -3  46   2      97.    1252.    1169. <
  -4  46   2   12289.   13819.    1142. o
   0  48   2    1761.    3685.    1274. o
   1  48   2     101.    2326.    3106. <
  -1  48   2     108.    1795.    1594. <
   2  48   2    1260.     437.    1784. <
  -2  48   2    1212.     520.    1181. <
  -3  48   2      65.     992.    1134. <
  -4  48   2    3851.    3745.    1087. o
   0  50   2    1546.    2220.    1275. <
   1  50   2     665.    1937.    3602. <
  -1  50   2     667.    -602.    1571. <
   2  50   2    1608.    1004.    1772. <
  -2  50   2    1604.    2220.    1110. <
  -3  50   2     351.     342.    1063. <
   0  52   2   32067.   33182.    1414. o
   1  52   2      26.     626.    2090. <
  -1  52   2      29.    1488.    1145. <
   2  52   2   30941.    -130.    1777. <
  -2  52   2   30945.   29663.    1110. o
   0   1   3     805.     484.     697. <
   1   1   3  408534.  431343.    1177. o
  -1   1   3  408932.  410209.    1397. o
   2   1   3     421.    1949.    1641. <
  -2   1   3     455.    1843.    1192. <
   3   1   3  198045.  211470.    2439. o
  -3   1   3  198115.  140264.    2825. o
  -4   1   3    1659.    1429.    1134. <
  -5   1   3  133555.  135971.    1764. o
  -6   1   3     614.    1110.    1453. <
  -7   1   3   34136.   39214.    1591. o
  -8   1   3      24.    1216.    1535. <
  -9   1   3   11599.   13274.    1722. o
   0   3   3   16436.   17610.     871. o
   1   3   3   11690.   11320.    1410. o
  -1   3   3   11793.   12294.     839. o
   2   3   3    3803.    4704.    1642. o
  -2   3   3    3787.    3286.    1182. o
   3   3   3   34226.   33766.    2141. o
  -3   3   3   34135.   32312.    1448. o
  -4   3   3    6396.    4161.    1350. o
  -5   3   3   31227.   31470.    1480. o
  -6   3   3     420.    1535.    1452. <
  -7   3   3   21884.   22034.    1561. o
  -8   3   3     671.    1004.    1665. <
  -9   3   3   14433.   13182.    1634. o
   0   5   3    4066.    2175.     817. o
   1   5   3    1434.    2965.    1299. o
  -1   5   3    1458.    2327.     850. o
   2   5   3    1270.     520.    1583. <
  -2   5   3    1361.    -118.     851. <
   3   5   3   13978.    8403.    1902. o
  -3   5   3   14343.   10054.    1254. o
  -4   5   3     554.    2480.    1204. o
  -5   5   3   14553.   19686.    1390. o
  -6   5   3     854.    3283.    1511. o
  -7   5   3   10786.   13583.    1566. o
  -8   5   3     798.   -1181.    1641. <
  -9   5   3    7397.    9713.    1615. o
   0   7   3   12644.   18016.     898. o
   1   7   3  389699.  390494.    1753. o
  -1   7   3  388502.  399000.     913. o
   2   7   3   12000.    8629.    1733. o
  -2   7   3   12074.    8713.     828. o
   3   7   3  224039.  220873.    2778. o
  -3   7   3  223642.  197001.    2556. o
  -4   7   3    5226.    3770.    1372. o
  -5   7   3  152607.  154969.    1650. o
  -6   7   3    2545.    4170.    1275. o
  -7   7   3   41984.   44776.    1652. o
  -8   7   3     147.    1488.    1547. <
  -9   7   3   16096.   18208.    1744. o
   0   9   3   52348.   52550.     977. o
   1   9   3   85429.   90313.    1089. o
  -1   9   3   85525.   91364.    1292. o
   2   9   3    2933.    2221.    1524. <
  -2   9   3    3055.     804.     864. <
   3   9   3   37268.   43372.    1962. o
  -3   9   3   37555.   37390.     929. o
  -4   9   3   11423.    6907.    1226. o
  -5   9   3   37547.   46417.    1536. o
  -6   9   3    2454.    1169.    1501. <
  -7   9   3   10833.   11396.    1666. o
  -8   9   3     923.   -1004.    1665. <
  -9   9   3    3770.    4891.    1736. o
   0  11   3      50.     732.     862. <
   1  11   3   56636.   59237.    1049. o
  -1  11   3   56956.   59334.    1176. o
   2  11   3     686.     472.    1583. <
  -2  11   3     733.     484.     874. <
   3  11   3   67114.   65998.    2110. o
  -3  11   3   67253.   54994.    1210. o
  -4  11   3     720.    3272.    1345. o
  -5  11   3   50649.   49794.    1634. o
  -6  11   3     515.    1949.    1535. <
  -7  11   3   31015.   36417.    1519. o
  -8  11   3     518.    1051.    1582. <
   0  13   3    4938.    5580.    1193. o
   1  13   3   48787.   35250.    1157. o
  -1  13   3   48776.   54287.    1251. o
   2  13   3   21625.   25938.    1774. o
  -2  13   3   21585.   22890.    1048. o
   3  13   3   21137.   20602.    1814. o
  -3  13   3   21199.   16754.     867. o
  -4  13   3     537.    3000.     991. o
  -5  13   3   23140.   23159.    1539. o
  -6  13   3    2422.    3780.    1535. o
  -7  13   3    6793.    6121.    1454. o
  -8  13   3     942.    4016.    1652. o
   0  15   3    1690.    2374.    1169. o
   1  15   3  473945.  407666.    4347. o
  -1  15   3  474024.  506941.    9980. o
   2  15   3    4343.    2446.    1785. <
  -2  15   3    4427.    3368.    1147. o
   3  15   3  263103.  236107.    3169. o
  -3  15   3  263227.  247746.    2107. o
  -4  15   3    3285.    1548.     993. <
  -5  15   3  162415.  109758.    2294. o
  -6  15   3     843.    1594.    1464. <
  -7  15   3   48074.   48956.    1475. o
  -8  15   3     428.    1134.    1547. <
   0  17   3    3516.    4514.    1181. o
   1  17   3   28995.   27004.    1094. o
  -1  17   3   28838.   26949.    1163. o
   2  17   3    5752.    5236.    1844. o
  -2  17   3    5864.    5343.    1171. o
   3  17   3   14619.    9811.    1807. o
  -3  17   3   14555.   10662.    1264. o
  -4  17   3    4299.    2788.     958. o
  -5  17   3   15619.   14301.    1022. o
  -6  17   3    2637.     201.     899. <
  -7  17   3    6311.    5388.    1502. o
  -8  17   3     570.    2563.    1535. <
   0  19   3     380.    -106.    1181. <
   1  19   3   22864.   22960.    1102. o
  -1  19   3   22817.   23539.    1336. o
   2  19   3   11230.   12079.    1974. o
  -2  19   3   11143.   11072.    1065. o
  -3  19   3   37140.   36619.    1274. o
  -4  19   3     213.    1429.     968. <
  -5  19   3   27213.   24834.    1034. o
  -6  19   3    1817.    3520.     955. o
  -7  19   3   19438.   14479.    1084. o
  -8  19   3    1006.    1488.    1004. <
   0  21   3     836.    1795.    1240. <
   1  21   3  120912.  117735.    1477. o
  -1  21   3  120784.  126361.    1453. o
   2  21   3     725.     -83.    1476. <
  -2  21   3     697.     189.    1287. <
  -3  21   3   66963.   60655.    1288. o
  -4  21   3     438.    1276.    1086. <
  -5  21   3   43416.   37485.     990. o
  -6  21   3     384.    1960.     932. o
  -7  21   3   11934.   12613.     991. o
  -8  21   3     765.    1606.    1004. <
   0  23   3   32394.   38313.    1322. o
   1  23   3  167570.  164111.    1723. o
  -1  23   3  167645.  166992.    1782. o
   2  23   3    2051.       0.    1571. <
  -2  23   3    2146.    -378.    1087. <
  -3  23   3   99582.  101809.    1343. o
  -4  23   3   10252.    7507.     988. o
  -5  23   3   70982.   74387.    1194. o
  -6  23   3    2951.    -118.     875. <
  -7  23   3   23810.   23665.    1042. o
  -8  23   3     858.     744.    1004. <
   0  25   3    3856.    8696.    1257. o
   1  25   3    4078.    4525.    1146. o
  -1  25   3    4108.    5707.    1298. o
   2  25   3    1090.    1157.    1630. <
  -2  25   3    1109.     331.    1181. <
  -3  25   3   11274.   12110.    1121. o
  -4  25   3    1611.    2752.    1062. o
  -5  25   3   13145.   11328.     987. o
  -6  25   3    1132.     744.    1063. <
  -7  25   3    9685.    8652.    1031. o
  -8  25   3      45.    -319.    1051. <
   0  27   3    1005.    2291.    1322. <
   1  27   3    5133.    6641.    1357. o
  -1  27   3    5138.    4963.    1229. o
   2  27   3    2573.    4879.    1664. o
  -2  27   3    2590.    1548.    1158. <
  -3  27   3   12702.   12785.    1041. o
  -4  27   3    2149.    4347.     931. o
  -5  27   3   11948.   12697.    1085. o
  -6  27   3     951.    1335.    1027. <
  -7  27   3   10003.    4917.    1166. o
   0  29   3    8522.    8169.    1455. o
   1  29   3  130567.  141789.    1497. o
  -1  29   3  130547.  126960.    2332. o
   2  29   3    1578.    3390.    1783. <
  -2  29   3    1592.    2114.    1146. <
  -3  29   3   83904.   80577.    1354. o
  -4  29   3    3102.    1595.    1064. <
  -5  29   3   53255.   56783.    1055. o
  -6  29   3     143.      24.    1063. <
  -7  29   3   18571.   15091.    1172. o
   0  31   3     920.    3543.    1262. o
   1  31   3   96966.   79383.    1550. o
  -1  31   3   97055.  108584.    1916. o
   2  31   3    2630.    2859.    1973. <
  -2  31   3    2673.    2776.    1075. o
  -3  31   3   58313.   57287.    1154. o
  -4  31   3    1596.    1098.    1063. <
  -5  31   3   36631.   41610.    1139. o
  -6  31   3    1054.     248.     957. <
  -7  31   3   11323.    5366.    1204. o
   0  33   3     102.     -47.    1323. <
   1  33   3    6456.    7575.    1653. o
  -1  33   3    6412.    5637.    1136. o
   2  33   3     823.     673.    1311. <
  -2  33   3     829.    -201.    1110. <
  -3  33   3   11294.   11362.    1111. o
  -4  33   3     248.    1169.     980. <
  -5  33   3   10507.   11902.    1119. o
  -6  33   3     284.     874.    1098. <
  -7  33   3    9195.   10116.    1487. o
   0  35   3     841.     661.    1193. <
   1  35   3    4244.    5588.    2386. o
  -1  35   3    4220.    4501.    1110. o
   2  35   3    2240.    2540.    2469. <
  -2  35   3    2200.    3922.    1121. o
  -3  35   3    3212.    4371.    1097. o
  -4  35   3     645.    2067.    1062. <
  -5  35   3    3677.    5115.    1002. o
  -6  35   3     226.    1890.    1228. <
   0  37   3    1015.    2575.    1121. o
   1  37   3  100206.  108144.    2190. o
  -1  37   3  100268.  107113.    1304. o
   2  37   3     578.    2138.    2421. <
  -2  37   3     617.     307.    1169. <
  -3  37   3   64838.   63940.    1672. o
  -4  37   3     744.     319.    1169. <
  -5  37   3   39310.   43228.    1098. o
  -6  37   3     646.     531.    1193. <
   0  39   3    3911.    7112.    1224. o
   1  39   3    8863.    9172.    1631. o
  -1  39   3    8887.   10685.    1130. o
   2  39   3    1576.    1429.    2280. <
  -2  39   3    1587.    2362.    1134. o
  -3  39   3    5388.    5589.    1465. o
  -4  39   3    1404.    2835.    1109. o
  -5  39   3    5349.    6333.    1559. o
  -6  39   3     946.    1736.    1134. <
   0  41   3     170.    -354.    1512. <
   1  41   3    8674.    6666.    1138. o
  -1  41   3    8659.    9077.    1110. o
   2  41   3     417.    1842.    2102. <
  -2  41   3     406.     886.    1228. <
  -3  41   3   11743.   13098.    1261. o
  -4  41   3     137.    1311.    1216. <
  -5  41   3    9474.    8178.    1515. o
   0  43   3     469.     130.    1228. <
   1  43   3   11083.   13499.    1591. o
  -1  43   3   11095.   11324.    1465. o
   2  43   3     249.      94.    1724. <
  -2  43   3     264.    1370.    1169. <
  -3  43   3    7428.    7586.    1276. o
  -4  43   3     483.     779.    1264. <
  -5  43   3    5057.    6002.    1298. o
   0  45   3    1754.    3130.    1334. o
   1  45   3   46967.   53346.    1765. o
  -1  45   3   47065.   46060.    1738. o
  -2  45   3     351.    1512.    1181. <
  -3  45   3   32436.   33530.    1366. o
  -4  45   3     724.    2291.    1393. <
   0  47   3      90.     484.    1323. <
   1  47   3    1845.    3449.    1688. o
  -1  47   3    1836.    2752.    1606. <
  -2  47   3     207.    -732.    1370. <
  -3  47   3    1651.    2598.    1417. <
   0  49   3     390.    1335.    1311. <
   1  49   3    1011.    1571.    1689. <
  -1  49   3    1003.    1276.    1264. <
  -2  49   3     305.     484.    1157. <
  -3  49   3    1933.    2138.    1394. <
   0  51   3     606.    1335.    1323. <
   1  51   3   16532.    7390.    1146. o
  -1  51   3   16558.   15655.    1315. o
   0   0   4  652021.  668312.   13353. o
   1   0   4    4250.    5497.    1346. o
  -1   0   4    4036.    6050.     824. o
   2   0   4  247210.  267954.    2606. o
  -2   0   4  247459.  231358.    2070. o
   3   0   4    1215.    1110.    2327. <
  -3   0   4    1321.     260.    1453. <
   4   0   4  326146.  367788.    3701. o
  -4   0   4  324231.  323258.    2589. o
  -5   0   4     198.     -59.    1712. <
  -6   0   4   68275.   76196.    2018. o
  -7   0   4     420.    -673.    1890. <
  -8   0   4   43216.   42531.    2243. o
   0   2   4   24886.   23730.     839. o
   1   2   4    8069.    7878.     982. o
  -1   2   4    7876.    8703.     636. o
   2   2   4   23328.   28586.    1456. o
  -2   2   4   23239.   25855.     723. o
   3   2   4    3463.    2647.    1678. <
  -3   2   4    3530.    2186.    1041. o
   4   2   4   14012.   20184.    2223. o
  -4   2   4   13935.   19508.    1161. o
  -5   2   4     949.    1394.    1098. <
  -6   2   4   10339.   11159.    1298. o
  -7   2   4     369.    2008.    1334. <
  -8   2   4    4731.    4548.    1453. o
   0   4   4  101214.   89649.    1284. o
   1   4   4    5912.    4682.    1078. o
  -1   4   4    5765.    5934.     602. o
   2   4   4   11706.   12626.    1442. o
  -2   4   4   11622.   12861.     740. o
   3   4   4    2536.    1205.    1701. <
  -3   4   4    2601.    1217.     769. <
   4   4   4   80896.   96868.    2332. o
  -4   4   4   80956.   90885.    1232. o
  -5   4   4    1301.    1843.    1063. <
  -6   4   4   16822.   20440.    1299. o
  -7   4   4     677.    1689.    1334. <
  -8   4   4   32150.   33410.    1532. o
   0   6   4  172282.  168163.    1308. o
   1   6   4    7687.    5831.    1150. o
  -1   6   4    7514.    6704.     605. o
   2   6   4   53070.   56231.    1530. o
  -2   6   4   53715.   51760.     947. o
   3   6   4    4718.    6417.    1925. o
  -3   6   4    4799.    3699.     723. o
   4   6   4   68898.   73800.    2234. o
  -4   6   4   68520.   71991.    1419. o
  -5   6   4    2168.    2433.    1169. o
  -6   6   4   16561.   16989.    1347. o
  -7   6   4     675.    -803.    1464. <
  -8   6   4    8775.   10588.    1569. o
   0   8   4  388892.  396564.     894. o
   1   8   4   20998.   16999.     899. o
  -1   8   4   20770.   18841.     771. o
   2   8   4  153545.  158640.    1691. o
  -2   8   4  154998.  148475.    1308. o
   3   8   4   13677.   14612.    1832. o
  -3   8   4   13764.   12070.     847. o
   4   8   4  172310.  180732.    2449. o
  -4   8   4  171366.  113638.    2330. o
  -5   8   4    3192.    4820.    1203. o
  -6   8   4   47452.   45680.    1275. o
  -7   8   4    1284.     -94.    1441. <
  -8   8   4   24353.   26665.    1516. o
   0  10   4   11951.   11230.     843. o
   1  10   4    2241.    1571.     910. <
  -1  10   4    2112.    2008.     921. o
   2  10   4    3647.    3250.    1513. o
  -2  10   4    3496.    2942.     792. o
   3  10   4    2688.    2457.    2020. <
  -3  10   4    2771.    1902.     851. o
   4  10   4   26263.   31864.    1991. o
  -4  10   4   26553.   29565.     923. o
  -5  10   4    1462.     768.    1122. <
  -6  10   4    7761.    6665.    1349. o
  -7  10   4     913.    1157.    1441. <
  -8  10   4   13483.   12047.    1516. o
   0  12   4   17523.   16640.     775. o
   1  12   4    3838.    4952.     814. o
  -1  12   4    3726.    5660.    1014. o
   2  12   4   12607.    6401.    1583. o
  -2  12   4   12601.    7442.     867. o
   3  12   4    2522.    2752.    1914. <
  -3  12   4    2576.    2528.     756. o
   4  12   4   29709.   32639.    1907. o
  -4  12   4   29727.   30660.     808. o
  -5  12   4    2222.    1429.     922. <
  -6  12   4   13354.   13823.    1382. o
  -7  12   4     537.     307.    1299. <
  -8  12   4   15625.   15063.    1586. o
   0  14   4  297747.  305503.     993. o
   1  14   4    5436.    4067.     841. o
  -1  14   4    5232.    6440.    1050. o
   2  14   4  136080.  147330.    1715. o
  -2  14   4  136323.  136308.    1325. o
   3  14   4    1979.    2374.    1878. <
  -3  14   4    2000.    2563.     862. o
  -4  14   4  148070.  129795.    1638. o
  -5  14   4     682.    2457.     908. o
  -6  14   4   39277.   27777.    1046. o
  -7  14   4     332.    2031.    1287. <
  -8  14   4   18911.   20387.    1627. o
   0  16   4  191072.  189422.    1409. o
   1  16   4    2911.    2103.     946. o
  -1  16   4    2760.    3367.    1086. o
   2  16   4  130740.  149397.    1659. o
  -2  16   4  130870.  139056.    1248. o
   3  16   4     645.     839.    1772. <
  -3  16   4     699.    -531.     968. <
  -4  16   4   87066.   81552.    1193. o
  -5  16   4      56.    1370.     826. <
  -6  16   4   39643.   38047.     977. o
  -7  16   4     289.    -827.    1027. <
  -8  16   4   10559.    7694.    1164. o
   0  18   4   20152.   19768.     985. o
   1  18   4    6623.    4197.     937. o
  -1  18   4    6545.    6714.    1170. o
   2  18   4    6289.    8699.    1545. o
  -2  18   4    6276.    8084.    1155. o
   3  18   4    2954.    1146.    1572. <
  -3  18   4    2985.    3721.    1110. o
  -4  18   4   26699.   31598.     992. o
  -5  18   4     930.    2043.     850. o
  -6  18   4   11780.   10498.     903. o
  -7  18   4     267.    1004.    1027. <
  -8  18   4   15384.   16433.    1107. o
   0  20   4    2301.    2374.    1193. <
   1  20   4    2378.    3946.     920. o
  -1  20   4    2298.    4111.    1002. o
   2  20   4    2073.     378.    1595. <
  -2  20   4    2136.     402.    1217. <
   3  20   4    1380.      59.    1618. <
  -3  20   4    1436.    1595.    1122. <
  -4  20   4    5247.    7409.    1095. o
  -5  20   4    1006.    1535.     862. <
  -6  20   4    5868.    5057.     852. o
  -7  20   4     361.     260.     886. <
  -8  20   4    3625.    5280.    1061. o
   0  22   4  219065.  220817.    1677. o
   1  22   4    4504.    4940.    1004. o
  -1  22   4    4414.    6298.    1203. o
   2  22   4  142475.  149029.    2116. o
  -2  22   4  142911.  141277.    1555. o
   3  22   4    5803.    3699.    1656. o
  -3  22   4    5908.    5460.    1182. o
  -4  22   4  106734.  108583.    1358. o
  -5  22   4    1388.    1122.    1110. <
  -6  22   4   44346.   41153.    1100. o
  -7  22   4     800.     756.     874. <
   0  24   4   30591.   29897.    1320. o
   1  24   4    7907.    7625.    1076. o
  -1  24   4    7818.    7837.    1206. o
   2  24   4   25253.    8919.    1350. o
  -2  24   4   25304.   25585.    1112. o
   3  24   4    5979.    5956.    1761. o
  -3  24   4    5987.    5885.    1206. o
  -4  24   4   16506.   17875.    1118. o
  -5  24   4    1589.     685.    1087. <
  -6  24   4    7894.    2860.     893. o
  -7  24   4     751.    2079.    1086. <
   0  26   4   25549.   25775.    1314. o
   1  26   4     487.    1087.    1098. <
  -1  26   4     442.    1925.    1228. <
   2  26   4   29828.   18116.    1527. o
  -2  26   4   29960.   33002.    1102. o
   3  26   4     357.     531.    1689. <
  -3  26   4     379.     224.    1098. <
  -4  26   4   27081.   31330.    1106. o
  -5  26   4     700.    -283.    1087. <
  -6  26   4   20217.   18573.    1167. o
  -7  26   4     380.    -661.    1169. <
   0  28   4   25435.   31622.    1289. o
   1  28   4    3462.    4430.    1157. o
  -1  28   4    3389.    4265.    1287. o
   2  28   4   18516.    8638.    1326. o
  -2  28   4   18570.   20697.    1269. o
  -3  28   4    2468.    2823.    1134. o
  -4  28   4   12978.   15312.    1139. o
  -5  28   4    1029.    2598.     920. o
  -6  28   4    7305.    6688.     947. o
  -7  28   4     455.    1677.    1559. <
   0  30   4  142403.  151620.    1403. o
   1  30   4    1515.    1039.    1134. <
  -1  30   4    1427.    2386.    1252. <
   2  30   4  111503.   75245.    2080. o
  -2  30   4  111684.  115133.    1384. o
  -3  30   4     943.     697.    1051. <
  -4  30   4   70790.   77192.    1115. o
  -5  30   4     145.    1582.    1074. <
  -6  30   4   36253.   41441.    1162. o
   0  32   4    5954.    7267.    1310. o
   1  32   4     291.    2681.    1275. o
  -1  32   4     275.    2279.    1228. <
   2  32   4    3128.    2351.    1300. <
  -2  32   4    3097.    4288.    1074. o
  -3  32   4     469.    1370.    1086. <
  -4  32   4    6531.    7054.    1110. o
  -5  32   4     223.     236.     968. <
  -6  32   4    3015.    1004.    1005. <
   0  34   4    3619.    3083.    1300. o
   1  34   4    3060.    4288.    1310. o
  -1  34   4    3028.    4087.    1109. o
   2  34   4    7054.    5602.    1455. o
  -2  34   4    7037.    7433.    1063. o
  -3  34   4    1807.    1039.     933. <
  -4  34   4    7110.    8248.    1109. o
  -5  34   4     621.     -94.    1110. <
  -6  34   4    8559.    3841.    1164. o
   0  36   4   38459.   35106.    1282. o
   1  36   4     892.    2043.    1299. <
  -1  36   4     848.    1051.    1086. <
   2  36   4   35514.   38019.    2264. o
  -2  36   4   35481.   33860.    1139. o
  -3  36   4     721.     744.    1110. <
  -4  36   4   19046.   19197.    1147. o
  -5  36   4     163.    1228.    1004. <
  -6  36   4   11171.   13758.    1055. o
   0  38   4   57764.   54714.    1444. o
   1  38   4    1617.    1606.    1252. <
  -1  38   4    1600.    4370.    1096. o
   2  38   4   43110.   46883.    2244. o
  -2  38   4   43096.   42911.    1246. o
  -3  38   4    1948.    1902.     945. o
  -4  38   4   30712.   33231.    1177. o
  -5  38   4     688.     555.    1098. <
   0  40   4     909.    1311.    1146. <
   1  40   4    1980.    2256.    1512. <
  -1  40   4    1956.    3886.    1180. o
   2  40   4    3918.    3981.    1985. o
  -2  40   4    3980.    4194.    1158. o
  -3  40   4    1384.    2268.    1110. o
  -4  40   4    3159.    4394.    1038. o
  -5  40   4     578.     378.    1110. <
   0  42   4     927.    1346.    1228. <
   1  42   4     110.      35.    1476. <
  -1  42   4      95.      24.    1181. <
   2  42   4    1551.    -650.    1819. <
  -2  42   4    1566.    2209.    1157. <
  -3  42   4     249.     980.    1134. <
  -4  42   4    2899.    4158.    1145. o
   0  44   4   35825.   38148.    1644. o
   1  44   4    1204.    1488.    1346. <
  -1  44   4    1188.    2126.    1086. <
   2  44   4   31160.    4285.    1886. o
  -2  44   4   31197.   35043.    1239. o
  -3  44   4    1251.    1157.    1169. <
  -4  44   4   19014.   17373.    1225. o
   0  46   4   18400.   21702.    1776. o
   1  46   4     147.     827.    1358. <
  -1  46   4     132.    -685.    1193. <
   2  46   4   12211.     248.    1734. <
  -2  46   4   12220.   13251.    1226. o
  -3  46   4      82.     685.    1287. <
   0  48   4    1087.     874.    1405. <
   1  48   4      13.    1960.    1806. <
  -1  48   4      12.    1760.    1429. <
   2  48   4    2557.    3036.    1890. <
  -2  48   4    2542.    3803.    1227. o
   0   1   5     167.    1004.     732. <
   1   1   5  166061.  180222.     961. o
  -1   1   5  165913.  163465.    1008. o
   2   1   5    2810.    3403.    1157. o
  -2   1   5    2786.    2883.     602. o
   3   1   5  145308.  147099.    1899. o
  -3   1   5  145546.  146874.     752. o
   4   1   5     229.    3165.    1983. <
  -4   1   5     238.    2362.     944. o
  -5   1   5   46974.   44716.    1186. o
  -6   1   5     522.     839.    1181. <
  -7   1   5   27948.   30040.    1313. o
  -8   1   5     390.    1523.    1346. <
   0   3   5    3483.    1335.     746. <
   1   3   5   10442.   10350.    1136. o
  -1   3   5   10314.    9390.     584. o
   2   3   5   10985.   10444.    1279. o
  -2   3   5   10964.    9272.     610. o
   3   3   5   13780.   14932.    1476. o
  -3   3   5   13488.   13140.     794. o
   4   3   5     654.    4830.    2053. o
  -4   3   5     646.    1075.     779. <
  -5   3   5   17988.   19817.    1151. o
  -6   3   5    2267.    1287.    1146. <
  -7   3   5   16371.   19760.    1300. o
  -8   3   5     277.    1205.    1334. <
   0   5   5     332.     520.     756. <
   1   5   5    4610.    4880.    1028. o
  -1   5   5    4704.    5732.     588. o
   2   5   5    1070.    1819.    1252. <
  -2   5   5    1130.    1642.     578. o
   3   5   5    6489.    8769.    1450. o
  -3   5   5    6541.    6784.     768. o
   4   5   5    1463.    2882.    2008. <
  -4   5   5    1446.    1264.     756. <
  -5   5   5    7492.    8037.    1134. o
  -6   5   5    2073.    2126.    1193. <
  -7   5   5    8391.    8745.    1287. o
  -8   5   5     388.    2893.    1428. o
   0   7   5   10505.    9131.     797. o
   1   7   5  194424.  203400.    1298. o
  -1   7   5  193646.  190981.    1221. o
   2   7   5   12068.   14407.    1413. o
  -2   7   5   12116.    9309.     651. o
   3   7   5  187155.  206035.    1726. o
  -3   7   5  187616.  161070.    1880. o
   4   7   5    4445.    6770.    2125. o
  -4   7   5    4450.    4832.     756. o
  -5   7   5   63623.   47726.    1154. o
  -6   7   5    2327.    1394.    1170. <
  -7   7   5   36783.   42547.    1413. o
  -8   7   5    1046.    2764.    1357. o
   0   9   5     927.    1654.     779. o
   1   9   5   40342.   36872.    1159. o
  -1   9   5   40338.   40826.     849. o
   2   9   5   21369.   22549.    1499. o
  -2   9   5   21272.   21042.     748. o
   3   9   5   43096.   47233.    1631. o
  -3   9   5   43090.   44229.     887. o
   4   9   5    1543.    1346.    1866. <
  -4   9   5    1610.    2374.     814. o
  -5   9   5   13617.   14167.     896. o
  -6   9   5    3863.    1666.     781. o
  -7   9   5    9002.   13567.    1348. o
  -8   9   5    1190.     992.    1370. <
   0  11   5     267.     106.     779. <
   1  11   5   46785.   49956.     818. o
  -1  11   5   46902.   51972.     759. o
   2  11   5    1729.    2126.    1465. <
  -2  11   5    1777.    2209.     874. o
   3  11   5   33331.   39101.    1879. o
  -3  11   5   33301.   27303.     918. o
   4  11   5     457.    3330.    1936. <
  -4  11   5     467.     756.     803. <
  -5  11   5   30518.   29767.     848. o
  -6  11   5    1712.    1122.     898. <
  -7  11   5   23250.   14896.    1044. o
  -8  11   5     373.     768.     945. <
   0  13   5   15396.   10745.     743. o
   1  13   5   25074.   25095.     924. o
  -1  13   5   25019.   27167.     859. o
   2  13   5    3069.    3308.    1477. o
  -2  13   5    3115.    4017.     885. o
   3  13   5   26525.   32967.    1927. o
  -3  13   5   26488.   26984.     896. o
   4  13   5    5580.    5719.    1843. o
  -4  13   5    5475.    5482.     744. o
  -5  13   5    6648.    6357.     851. o
  -6  13   5    1456.    1417.     815. <
  -7  13   5    5805.    6675.    1003. o
   0  15   5     877.     402.     780. <
   1  15   5  198065.  207738.     829. o
  -1  15   5  197827.  211813.    4230. o
   2  15   5    3905.    5293.    1488. o
  -2  15   5    3875.    5423.     896. o
   3  15   5  173030.  185946.    2200. o
  -3  15   5  173220.  183922.     888. o
   4  15   5     250.    2055.    1736. <
  -4  15   5     290.    1464.     862. <
  -5  15   5   67731.   65563.     945. o
  -6  15   5    1316.    1535.     898. <
  -7  15   5   36897.   40919.    1013. o
   0  17   5    1424.    3591.     884. o
   1  17   5    8739.    9363.     932. o
  -1  17   5    8724.    5970.     845. o
   2  17   5    4982.    5613.    1275. o
  -2  17   5    4951.    4762.    1064. o
   3  17   5   13038.   13246.    1833. o
  -3  17   5   12963.   13103.    1123. o
   4  17   5    1515.    1476.    1642. <
  -4  17   5    1615.    1169.     827. <
  -5  17   5    4678.    3946.     911. o
  -6  17   5    1236.    -425.     898. <
  -7  17   5    4327.    5493.     884. o
   0  19   5    8965.    7732.     819. o
   1  19   5   14366.   15118.     991. o
  -1  19   5   14351.   15532.    1120. o
   2  19   5    1443.    2280.    1512. <
  -2  19   5    1459.    3177.     944. o
   3  19   5   15866.   16504.    1761. o
  -3  19   5   15691.   17056.    1142. o
   4  19   5    3889.    6427.    1664. o
  -4  19   5    3796.    5245.     979. o
  -5  19   5   16653.   18795.     983. o
  -6  19   5    1412.    1488.     945. <
  -7  19   5   13817.   15522.     915. o
   0  21   5    2219.    2504.     909. o
   1  21   5   47811.   48674.    1046. o
  -1  21   5   47702.   49678.    1214. o
   2  21   5    1114.    1630.    1370. <
  -2  21   5    1173.    1051.    1110. <
   3  21   5   46565.   45933.    1903. o
  -3  21   5   46616.   51952.    1050. o
   4  21   5    1390.    3614.    1712. o
  -4  21   5    1346.    2020.    1145. <
  -5  21   5   16181.   19171.    1242. o
  -6  21   5    1538.     343.    1028. <
  -7  21   5    8858.    5022.    1034. o
   0  23   5     957.    1500.     909. <
   1  23   5  104585.  105027.    1256. o
  -1  23   5  104518.  108842.    1306. o
   2  23   5   17598.   17795.    1691. o
  -2  23   5   17535.   19510.    1032. o
   3  23   5   87785.   87662.    1919. o
  -3  23   5   87951.   99162.    1114. o
   4  23   5    1803.     331.    2634. <
  -4  23   5    1888.    2481.    1181. o
  -5  23   5   35710.   41461.    1256. o
  -6  23   5    3072.    3107.    1193. o
  -7  23   5   18041.   10832.    1157. o
   0  25   5    1333.    1394.     969. <
   1  25   5    3959.    3981.    1004. o
  -1  25   5    4020.    4998.    1169. o
   2  25   5    3587.    6805.    1663. o
  -2  25   5    3564.    6450.    1036. o
   3  25   5    5347.    5246.    1560. o
  -3  25   5    5320.    5282.    1182. o
  -4  25   5    1134.     -24.    1146. <
  -5  25   5    7226.    7126.    1170. o
  -6  25   5     846.    1087.    1157. <
   0  27   5    2656.    3780.    1003. o
   1  27   5    6678.    6653.    1075. o
  -1  27   5    6720.    6772.    1241. o
   2  27   5     843.     520.    1122. <
  -2  27   5     919.    1063.    1169. <
   3  27   5    7260.    7138.    1607. o
  -3  27   5    7242.    6559.    1171. o
  -4  27   5    1882.    2126.    1181. <
  -5  27   5    8267.    9064.    1121. o
  -6  27   5    1729.    2799.    1110. o
   0  29   5    2204.    3095.    1098. o
   1  29   5   78280.   58849.    1476. o
  -1  29   5   78185.   81810.    1236. o
   2  29   5    5321.    3970.    1242. o
  -2  29   5    5314.    6120.    1192. o
   3  29   5   65273.   62307.    1903. o
  -3  29   5   65315.   65969.    1274. o
  -4  29   5     623.     980.    1027. <
  -5  29   5   28571.   31912.    1003. o
  -6  29   5    1269.    -886.    1110. <
   0  31   5     919.     768.    1087. <
   1  31   5   40274.   40557.    1302. o
  -1  31   5   40132.   46075.    1137. o
   2  31   5    1353.    1913.    1193. <
  -2  31   5    1316.    1299.    1016. <
   3  31   5   35930.   33669.    1812. o
  -3  31   5   35955.   36832.    1058. o
  -4  31   5     552.    1618.     921. <
  -5  31   5   14848.   17616.    1790. o
  -6  31   5     493.    -555.     980. <
   0  33   5     792.    1394.    1145. <
   1  33   5    5030.    6652.    1215. o
  -1  33   5    5038.    5884.    1180. o
   2  33   5     438.     130.    1181. <
  -2  33   5     459.    1016.    1110. <
  -3  33   5    6426.    6250.    1099. o
  -4  33   5     519.     -71.    1039. <
  -5  33   5    7664.    6346.    1703. o
   0  35   5    2899.    2965.    1146. o
   1  35   5    2116.    1134.    1134. <
  -1  35   5    2093.    2953.    1192. o
   2  35   5    1363.    -165.    1252. <
  -2  35   5    1369.    1465.    1098. <
  -3  35   5    2803.    1890.    1075. <
  -4  35   5    1040.    1866.    1063. <
  -5  35   5    1526.    2669.     968. o
   0  37   5      99.     354.    1134. <
   1  37   5   51290.   35347.    1356. o
  -1  37   5   51227.   50550.    1241. o
   2  37   5    1812.    1311.    1311. <
  -2  37   5    1808.    3047.    1062. o
  -3  37   5   41543.   40786.    1086. o
  -4  37   5     458.     898.    1134. <
  -5  37   5   20400.   19822.    1197. o
   0  39   5    1618.    1760.    1146. <
   1  39   5    6950.    6180.    1159. o
  -1  39   5    6913.    6558.    1218. o
   2  39   5    2741.    1205.    1843. <
  -2  39   5    2733.    2292.    1158. <
  -3  39   5    7444.    9501.    1083. o
  -4  39   5    1170.     945.    1134. <
   0  41   5     805.    1276.    1122. <
   1  41   5    6972.    6002.    1124. o
  -1  41   5    7010.    8011.    1121. o
   2  41   5     442.     957.    1949. <
  -2  41   5     442.     402.    1169. <
  -3  41   5    6274.    5376.    1006. o
   0  43   5     521.    2575.    1145. o
   1  43   5    5375.    4395.    1112. o
  -1  43   5    5374.    6226.    1204. o
   2  43   5     850.     968.    1866. <
  -2  43   5     866.    2197.    1098. <
  -3  43   5    5112.    5305.    1075. o
   0  45   5     505.     295.    1181. <
   1  45   5   30210.   15376.    1522. o
  -1  45   5   30131.   35366.    1156. o
   2  45   5    1176.     154.    1736. <
  -2  45   5    1162.    2055.    1086. <
   0   0   6  121708.  130966.    1382. o
   1   0   6    2801.    2977.    1276. o
  -1   0   6    2968.    3722.     862. o
   2   0   6  207596.  196351.    2677. o
  -2   0   6  206551.  218297.     626. o
   3   0   6     628.    1630.    2043. <
  -3   0   6     568.     531.     815. <
   4   0   6   69949.   88233.    2759. o
  -4   0   6   70495.   70034.    1055. o
   5   0   6    1433.    8126.    3410. o
  -5   0   6    1394.    2504.     932. o
  -6   0   6   71129.   73870.    1800. o
  -7   0   6     521.    -626.    1677. <
   0   2   6   20907.   20234.    1022. o
   1   2   6    3558.    4525.    1110. o
  -1   2   6    3653.    3001.     580. o
   2   2   6    7561.   10047.    1295. o
  -2   2   6    7523.   10141.     592. o
   3   2   6    2079.    1358.    1441. <
  -3   2   6    2017.    1488.     567. o
   4   2   6    9664.   13748.    1849. o
  -4   2   6    9555.    8250.     620. o
   5   2   6    1498.    1453.    2445. <
  -5   2   6    1502.    1913.     779. o
  -6   2   6    4508.    4040.    1146. o
  -7   2   6     475.    1063.    1216. <
   0   4   6    4894.    3864.     770. o
   1   4   6    3461.    4749.    1097. o
  -1   4   6    3551.    3367.     674. o
   2   4   6   51143.   54693.    1267. o
  -2   4   6   51302.   53218.     687. o
   3   4   6    2050.    2410.    1441. <
  -3   4   6    2005.    1228.     615. <
   4   4   6   10480.   11196.    1867. o
  -4   4   6   10385.    8854.     644. o
   5   4   6    1451.    6295.    2336. o
  -5   4   6    1465.    2929.     790. o
  -6   4   6   29786.   24399.     941. o
  -7   4   6     684.    1488.    1193. <
   0   6   6   37083.   37376.     791. o
   1   6   6    6376.    8757.    1023. o
  -1   6   6    6487.    8805.     654. o
   2   6   6   49163.   51395.    1392. o
  -2   6   6   49098.   51534.     690. o
   3   6   6    3939.    4194.    1465. o
  -3   6   6    3899.    3946.     662. o
   4   6   6   16888.   22010.    2128. o
  -4   6   6   17217.   17546.     755. o
   5   6   6    2698.    3579.    2173. <
  -5   6   6    2697.    3745.     790. o
  -6   6   6   15121.   15950.     883. o
  -7   6   6    1157.    2480.     920. o
   0   8   6  133901.  136264.     906. o
   1   8   6   12682.   12630.    1053. o
  -1   8   6   12843.   10894.     730. o
   2   8   6  157326.  166978.    1438. o
  -2   8   6  157178.  161679.     586. o
   3   8   6    4890.    4904.    1489. o
  -3   8   6    4850.    3545.     617. o
   4   8   6   58604.   75388.    2163. o
  -4   8   6   59415.   63328.     789. o
   5   8   6    4622.    4643.    2068. o
  -5   8   6    4614.    4360.     804. o
  -6   8   6   42630.   45015.     881. o
  -7   8   6    1243.    2220.     933. o
   0  10   6      37.     933.     791. <
   1  10   6    3793.    5198.    1097. o
  -1  10   6    3896.    4088.     709. o
   2  10   6   13975.   16368.    1353. o
  -2  10   6   14159.   17128.     776. o
   3  10   6    1750.    2067.    1500. <
  -3  10   6    1719.    1347.     721. <
   4  10   6    4332.    6002.    2267. o
  -4  10   6    4263.    3024.     793. o
   5  10   6    2270.    3343.    2078. <
  -5  10   6    2265.    3177.     802. o
  -6  10   6   11334.   13417.     831. o
  -7  10   6     856.    1417.     945. <
   0  12   6    2899.    3190.     815. o
   1  12   6    3000.    5718.    1131. o
  -1  12   6    3057.    4088.     743. o
   2  12   6   15799.   14810.    1363. o
  -2  12   6   15835.   16148.     838. o
   3  12   6    3072.    2693.    1524. <
  -3  12   6    3038.    2504.     745. o
   4  12   6    8230.    8320.    2045. o
  -4  12   6    8219.    6760.     807. o
   5  12   6    1347.    3921.    1983. <
  -5  12   6    1362.    2126.     744. o
  -6  12   6   12903.   16503.     870. o
  -7  12   6     754.    1972.     873. o
   0  14   6   90164.   95396.     903. o
   1  14   6    4057.    2906.     875. o
  -1  14   6    4177.    5033.     767. o
   2  14   6  113743.  122799.    1584. o
  -2  14   6  113241.  101363.    1276. o
   3  14   6    1466.    2197.    1559. <
  -3  14   6    1407.    2776.    1003. o
   4  14   6   44630.   55112.    1869. o
  -4  14   6   44891.   47903.     834. o
   5  14   6    1330.      83.    2421. <
  -5  14   6    1314.    2445.     850. o
  -6  14   6   34069.   34905.     867. o
  -7  14   6     418.    1134.     956. <
   0  16   6   68790.   70551.     917. o
   1  16   6    1588.     945.     874. <
  -1  16   6    1688.    1158.     768. <
   2  16   6   56089.   63674.    1336. o
  -2  16   6   55781.   39760.    1038. o
   3  16   6     490.    2598.    1594. <
  -3  16   6     437.     520.    1004. <
   4  16   6   38168.   42793.    1785. o
  -4  16   6   38173.   29212.     993. o
  -5  16   6    1174.    1961.     803. o
  -6  16   6   18972.   13269.     993. o
  -7  16   6     351.     413.     862. <
   0  18   6    1255.    2433.     814. o
   1  18   6    2694.    1335.     910. <
  -1  18   6    2745.    2126.     875. o
   2  18   6   12647.   13078.    1524. o
  -2  18   6   12615.   10287.     813. o
   3  18   6    1273.     850.    1595. <
  -3  18   6    1252.    1075.     945. <
   4  18   6    5937.    5341.    1572. o
  -4  18   6    5869.    6357.     980. o
  -5  18   6     811.     768.     921. <
  -6  18   6   12721.    9587.    1025. o
   0  20   6     136.     177.     768. <
   1  20   6    2042.    3484.     944. o
  -1  20   6    2088.    2374.     838. o
   2  20   6     843.    2894.    1322. o
  -2  20   6     846.     850.    1087. <
   3  20   6    2089.    1914.    1382. <
  -3  20   6    2053.    2977.    1074. o
   4  20   6    2453.    2752.    1500. <
  -4  20   6    2488.    3402.    1086. o
  -5  20   6    1018.     283.    1146. <
  -6  20   6    2683.    3437.     932. o
   0  22   6   93016.   94790.    1005. o
   1  22   6    5753.    7361.     918. o
  -1  22   6    5865.    6878.     920. o
   2  22   6   85598.   89892.    1790. o
  -2  22   6   85559.   89924.    1228. o
   3  22   6    2282.    4642.    1546. o
  -3  22   6    2255.    2918.    1110. o
   4  22   6   48645.   56415.    1653. o
  -4  22   6   49076.   55061.    1201. o
  -5  22   6    2748.    3284.    1181. o
  -6  22   6   25607.   29402.    1098. o
   0  24   6   24515.   22669.     994. o
   1  24   6    5450.    7255.    1049. o
  -1  24   6    5505.    5353.     886. o
   2  24   6   14956.   12630.    1613. o
  -2  24   6   15007.   16900.    1033. o
   3  24   6    2156.    2445.    1594. <
  -3  24   6    2132.    1134.    1004. <
   4  24   6   10532.   12115.    1498. o
  -4  24   6   10555.   13357.    1055. o
  -5  24   6    2324.    1890.    1111. <
  -6  24   6    5096.    6604.    1168. o
   0  26   6   16684.   17139.     944. o
   1  26   6     975.    1087.    1016. <
  -1  26   6    1000.    2091.     968. o
   2  26   6   19565.   20407.    1689. o
  -2  26   6   19624.   20940.    1236. o
   3  26   6    1147.    1606.    1464. <
  -3  26   6    1132.    2020.    1086. <
   4  26   6   15236.   13739.    1635. o
  -4  26   6   15379.   16484.    1072. o
  -5  26   6     829.     484.    1075. <
  -6  26   6   11112.   13273.    1081. o
   0  28   6   13046.   13089.     946. o
   1  28   6    3163.    3662.    1051. o
  -1  28   6    3224.    3627.    1039. o
   2  28   6    9669.    9397.    1584. o
  -2  28   6    9666.   14042.    1241. o
   3  28   6    1661.    2622.    1511. <
  -3  28   6    1639.    2114.    1063. <
   4  28   6    6831.    4927.    2896. <
  -4  28   6    6882.    6499.    1135. o
  -5  28   6    1188.    1134.    1016. <
   0  30   6   72373.   79212.    1037. o
   1  30   6    1489.    1890.    1051. <
  -1  30   6    1535.    2091.    1004. o
   2  30   6   58144.   61992.    1587. o
  -2  30   6   57978.   63739.    1318. o
   3  30   6     594.    3071.    1558. <
  -3  30   6     559.    1890.    1039. <
  -4  30   6   39868.   44792.    1210. o
  -5  30   6     932.     -71.    1157. <
   0  32   6     646.    2764.    1085. o
   1  32   6     364.     779.    1134. <
  -1  32   6     395.    1346.    1086. <
   2  32   6    1347.    1571.    1512. <
  -2  32   6    1352.    1890.    1181. <
   3  32   6      91.    -142.    1453. <
  -3  32   6      98.    -531.    1004. <
  -4  32   6    1308.    2669.    1109. o
  -5  32   6     245.    -921.    1122. <
   0  34   6    1965.    3331.    1133. o
   1  34   6    1458.    3130.    1192. o
  -1  34   6    1477.    2563.    1074. o
   2  34   6    3171.    4761.    1475. o
  -2  34   6    3127.    4961.    1132. o
   3  34   6    1038.    1594.    1665. <
  -3  34   6    1021.     697.    1134. <
  -4  34   6    4812.    4584.    1193. o
   0  36   6   22049.   20751.    1130. o
   1  36   6    1467.     661.    1146. <
  -1  36   6    1501.     921.    1016. <
   2  36   6   14994.   13988.    1481. o
  -2  36   6   14944.   14401.    1042. o
   3  36   6     730.     945.    1736. <
  -3  36   6     708.    1429.    1169. <
  -4  36   6   11961.   14420.    1198. o
   0  38   6   30287.   29997.    1174. o
   1  38   6    1834.    1500.    1146. <
  -1  38   6    1860.    1087.    1075. <
   2  38   6   25891.   20766.    1652. o
  -2  38   6   25961.   26034.    1230. o
  -3  38   6     827.    1772.    1086. <
   0  40   6     802.     319.    1016. <
   1  40   6    1311.    1429.    1122. <
  -1  40   6    1317.    1169.    1051. <
   2  40   6     854.    1169.    1571. <
  -2  40   6     847.     -94.    1087. <
   0  42   6     814.     933.    1051. <
   1  42   6     595.    1453.    1086. <
  -1  42   6     613.    1039.    1039. <
   0   1   7    3713.    4986.    1026. o
   1   1   7   72293.   83674.    1108. o
  -1   1   7   72595.   74348.     828. o
   2   1   7    1068.    1465.    1216. <
  -2   1   7    1032.    1405.     578. o
   3   1   7   42834.   47469.    1419. o
  -3   1   7   42488.   42498.     664. o
   4   1   7    2054.    3827.    1700. o
  -4   1   7    2085.    2185.     590. o
   5   1   7   32657.   41302.    2270. o
  -5   1   7   32667.   35843.     680. o
  -6   1   7     404.    1866.     684. o
   0   3   7    5614.    8011.    1024. o
   1   3   7    4872.    4537.    1040. o
  -1   3   7    4794.    5293.     755. o
   2   3   7     836.    1594.    1228. <
  -2   3   7     817.    2197.     637. o
   3   3   7    7324.    9809.    1449. o
  -3   3   7    7301.    9643.     617. o
   4   3   7    3280.    4820.    1700. o
  -4   3   7    3293.    2493.     615. o
   5   3   7   10750.   17399.    2246. o
  -5   3   7   10683.   10957.     684. o
  -6   3   7     334.    2079.     696. o
   0   5   7    2256.    4347.     919. o
   1   5   7    2143.    1441.    1134. <
  -1   5   7    2173.    2929.     720. o
   2   5   7    2636.    3449.    1252. o
  -2   5   7    2576.    1394.     580. o
   3   5   7    2346.    3839.    1440. o
  -3   5   7    2428.    4701.     634. o
   4   5   7    2944.    2457.    1689. <
  -4   5   7    3004.    2138.     627. o
   5   5   7    5356.    6368.    2339. o
  -5   5   7    5365.    6321.     683. o
  -6   5   7     960.    2185.     696. o
   0   7   7    7797.    9148.     942. o
   1   7   7  107550.  114467.    1266. o
  -1   7   7  108151.  108026.     923. o
   2   7   7    4622.    2989.    1289. o
  -2   7   7    4587.    4312.     674. o
   3   7   7   62714.   72280.    1528. o
  -3   7   7   62533.   65712.     658. o
   4   7   7    4292.    6368.    1758. o
  -4   7   7    4331.    4962.     649. o
   5   7   7   46231.   58434.    2061. o
  -5   7   7   46465.   38268.     838. o
  -6   7   7    1613.    1677.     791. o
   0   9   7   10911.    8358.     730. o
   1   9   7   23824.   25307.    1175. o
  -1   9   7   23915.   23462.     785. o
   2   9   7    1012.    3531.    1262. o
  -2   9   7    1001.    2398.     743. o
   3   9   7   13790.   16413.    1506. o
  -3   9   7   13721.   14390.     682. o
   4   9   7    6662.    9465.    1710. o
  -4   9   7    6630.    5814.     699. o
   5   9   7   10900.   15224.    2025. o
  -5   9   7   10971.    8783.     682. o
  -6   9   7     956.    2587.     778. o
   0  11   7    2220.    2752.     767. o
   1  11   7   21487.   22923.    1200. o
  -1  11   7   21459.   20887.     832. o
   2  11   7     978.    1394.    1311. <
  -2  11   7     956.     283.     780. <
   3  11   7   18736.   25798.    1545. o
  -3  11   7   18870.   22336.     755. o
   4  11   7    2452.    1996.    1878. <
  -4  11   7    2482.     661.     686. <
   5  11   7   17711.   19644.    1994. o
  -5  11   7   17678.   16202.     824. o
  -6  11   7     675.     555.     886. <
   0  13   7    1298.    2161.     791. o
   1  13   7   13420.   14686.    1083. o
  -1  13   7   13480.   14237.     789. o
   2  13   7    5007.    5459.    1311. o
  -2  13   7    4926.    5494.     802. o
   3  13   7    6263.    7622.    1747. o
  -3  13   7    6181.    7432.     801. o
   4  13   7    1883.    3177.    1700. <
  -4  13   7    1967.     732.     662. <
   5  13   7    5911.    4407.    1821. o
  -5  13   7    5911.    4194.     865. o
  -6  13   7    1290.    1346.     862. <
   0  15   7    4875.    6416.     812. o
   1  15   7   88654.   95228.    1258. o
  -1  15   7   88906.   89903.     976. o
   2  15   7     344.    1252.    1358. <
  -2  15   7     327.    2161.     708. o
   3  15   7   58054.   63036.    1698. o
  -3  15   7   57715.   63670.     703. o
   4  15   7    2647.    4276.    1771. o
  -4  15   7    2642.    3166.     956. o
   5  15   7   42506.   51888.    1953. o
  -5  15   7   42466.   43935.     942. o
  -6  15   7     221.    1842.     932. <
   0  17   7    4412.    5222.     849. o
   1  17   7    3645.    3308.    1123. o
  -1  17   7    3668.    1902.     805. o
   2  17   7     139.    2055.    1369. <
  -2  17   7     167.    1122.     815. <
   3  17   7    1962.    3248.    1641. <
  -3  17   7    1941.    1547.     792. <
   4  17   7    2131.    2634.    1701. <
  -4  17   7    2107.    3319.    1074. o
   5  17   7    3197.    4938.    1723. o
  -5  17   7    3176.    3544.    1146. o
   0  19   7     839.    1122.     898. <
   1  19   7    7229.    4928.    1232. o
  -1  19   7    7155.    6700.     864. o
   2  19   7    3477.    5292.    1558. o
  -2  19   7    3419.    3225.     827. o
   3  19   7    7850.   12573.    1598. o
  -3  19   7    7912.    7563.     769. o
   4  19   7    1532.     366.    1618. <
  -4  19   7    1594.    1252.     945. <
   5  19   7    9875.   13663.    1778. o
  -5  19   7    9795.    9667.    1182. o
   0  21   7    2329.    3473.     849. o
   1  21   7   23008.   16116.    1039. o
  -1  21   7   23134.   24296.     915. o
   2  21   7    3234.    3792.    1571. o
  -2  21   7    3188.    3308.     779. o
   3  21   7   14052.   13077.    1575. o
  -3  21   7   13980.   10854.     910. o
   4  21   7    2082.    3413.    1700. o
  -4  21   7    2141.    1465.    1158. <
  -5  21   7   10880.   15614.    1179. o
   0  23   7    8842.   10566.     905. o
   1  23   7   57633.   40350.    1344. o
  -1  23   7   57827.   49128.    1059. o
   2  23   7     674.    -142.    1559. <
  -2  23   7     689.    1346.     850. <
   3  23   7   37000.   39114.    1657. o
  -3  23   7   36974.   40416.    1056. o
   4  23   7    4912.    5978.    1688. o
  -4  23   7    4881.    4017.    1159. o
  -5  23   7   23325.   24478.    1272. o
   0  25   7    2752.    3189.     980. o
   1  25   7    1900.    1394.    1028. <
  -1  25   7    1883.    1760.     980. <
   2  25   7    1102.     709.    1606. <
  -2  25   7    1094.    3803.     919. o
   3  25   7    2439.    3284.    1500. o
  -3  25   7    2496.    6048.    1189. o
   4  25   7    1726.    4713.    1652. o
  -4  25   7    1714.    1465.    1028. <
   0  27   7     323.     -59.     992. <
   1  27   7    3658.    1264.    1088. <
  -1  27   7    3649.    3296.     957. o
   2  27   7    2708.    2705.    1465. <
  -2  27   7    2661.    2776.     909. o
   3  27   7    4025.    4442.    1559. o
  -3  27   7    4075.    5647.    1215. o
   4  27   7    1344.     732.    1606. <
  -4  27   7    1403.   -1299.    1075. <
   0  29   7    2859.    2244.     957. o
   1  29   7   40534.   27333.    1254. o
  -1  29   7   40619.   41719.    1115. o
   2  29   7     992.    4205.    1451. o
  -2  29   7     976.    2126.     932. o
   3  29   7   27021.   26367.    1494. o
  -3  29   7   26950.   33525.    1271. o
   4  29   7    1838.    1878.    1594. <
  -4  29   7    1847.    2776.    1110. o
   0  31   7    1801.    1098.    1063. <
   1  31   7   17473.   10903.    1155. o
  -1  31   7   17540.   19348.    1032. o
   2  31   7      76.      24.    1441. <
  -2  31   7      89.    1039.    1039. <
   3  31   7   11907.   10379.    1551. o
  -3  31   7   11778.   12198.    1299. o
   0  33   7     225.    1453.    1074. <
   1  33   7    3109.    1831.    1087. <
  -1  33   7    3060.    2162.    1028. o
   2  33   7     562.     744.    1464. <
  -2  33   7     552.    2043.    1051. <
   3  33   7    3827.    5280.    1570. o
  -3  33   7    3845.    5458.    1227. o
   0  35   7    1027.      12.    1063. <
   1  35   7    1105.    -224.    1098. <
  -1  35   7    1099.     354.    1051. <
   2  35   7    1497.    -307.    1370. <
  -2  35   7    1471.    2256.     980. o
   0  37   7    2218.    4099.    1061. o
   1  37   7   25022.   20018.    1277. o
  -1  37   7   25106.   25450.    1051. o
   0   0   8   81832.  103343.    1442. o
   1   0   8    2642.    3237.    1346. o
  -1   0   8    2587.    4548.    1156. o
   2   0   8   44402.   50532.    1891. o
  -2   0   8   44553.   29994.    1103. o
   3   0   8    2783.    5044.    2054. o
  -3   0   8    2784.    2528.     839. o
   4   0   8   55373.   58948.    2589. o
  -4   0   8   54963.   52643.    1006. o
   5   0   8     452.    3567.    2869. <
  -5   0   8     466.     968.     886. <
   0   2   8    1779.    5327.    1000. o
   1   2   8    1439.    1193.     933. <
  -1   2   8    1408.    3673.     979. o
   2   2   8    6632.    5164.    1302. o
  -2   2   8    6579.    5565.     688. o
   3   2   8    1677.    5008.    1344. o
  -3   2   8    1697.    1417.     662. o
   4   2   8    2338.    3130.    1712. <
  -4   2   8    2330.    1843.     650. o
   5   2   8     497.    -201.    2256. <
  -5   2   8     506.    1004.     685. <
   0   4   8   25932.   27437.    1031. o
   1   4   8    1781.     283.    1052. <
  -1   4   8    1766.    1205.     733. <
   2   4   8    3993.    6828.    1272. o
  -2   4   8    3919.    5517.     682. o
   3   4   8    1557.    4122.    1439. o
  -3   4   8    1571.    1677.     673. o
   4   4   8   18384.   22600.    1760. o
  -4   4   8   18424.   15079.     730. o
   5   4   8     921.    1453.    2090. <
  -5   4   8     911.     661.     685. <
   0   6   8   18585.   22900.     920. o
   1   6   8    3888.    5895.    1061. o
  -1   6   8    3859.    3272.     745. o
   2   6   8   12892.   14648.    1319. o
  -2   6   8   12982.   14897.     747. o
   3   6   8    3470.    6036.    1474. o
  -3   6   8    3474.    2953.     615. o
   4   6   8   13032.   12401.    1739. o
  -4   6   8   12994.    8783.     714. o
   5   6   8    1381.     697.    2114. <
  -5   6   8    1381.    1949.     696. o
   0   8   8   71763.   84288.     796. o
   1   8   8    3265.    4524.    1180. o
  -1   8   8    3217.    3863.     791. o
   2   8   8   48240.   48315.    1410. o
  -2   8   8   48508.   53556.     701. o
   3   8   8    4196.    5978.    1593. o
  -3   8   8    4224.    4867.     779. o
   4   8   8   40810.   47260.    1842. o
  -4   8   8   40715.   45018.     702. o
   5   8   8     977.      71.    2161. <
  -5   8   8     992.     744.     685. <
   0  10   8    7100.    7693.    1098. o
   1  10   8    2542.    2563.    1181. o
  -1  10   8    2514.    3059.     826. o
   2  10   8     669.     968.    1323. <
  -2  10   8     631.     283.     744. <
   3  10   8    2587.    3414.    1500. o
  -3  10   8    2593.    4040.     778. o
   4  10   8    5543.    8766.    1816. o
  -4  10   8    5615.    3686.     712. o
   5  10   8     913.    2362.    2055. <
  -5  10   8     909.     614.     709. <
   0  12   8    8487.    6855.    1020. o
   1  12   8    2039.    1146.     993. <
  -1  12   8    2035.    1299.     827. <
   2  12   8    2348.    3733.    1357. o
  -2  12   8    2320.     933.     745. <
   3  12   8    1341.    3874.    1510. o
  -3  12   8    1349.    1654.     827. <
   4  12   8    7022.    9027.    1865. o
  -4  12   8    7008.    9807.     831. o
   5  12   8    1044.    3283.    1771. <
  -5  12   8    1035.     945.     756. <
   0  14   8   47914.   35726.    1066. o
   1  14   8    1852.     413.    1252. <
  -1  14   8    1819.    1217.     744. <
   2  14   8   31486.   34596.    1413. o
  -2  14   8   31558.   34065.     875. o
   3  14   8    1966.    2268.    1583. <
  -3  14   8    1989.    3284.     837. o
   4  14   8   29044.   30113.    1664. o
  -4  14   8   28833.   33244.     807. o
   0  16   8   20709.   15769.     901. o
   1  16   8    1522.    1370.    1228. <
  -1  16   8    1473.     248.     851. <
   2  16   8   24134.   26150.    1339. o
  -2  16   8   24100.   27357.     886. o
   3  16   8    2074.    5256.    1793. o
  -3  16   8    2087.    4335.     753. o
   4  16   8   15240.   18918.    1811. o
  -4  16   8   15128.   18290.     906. o
   0  18   8    6711.    4147.     925. o
   1  18   8     695.     555.    1276. <
  -1  18   8     690.     531.     791. <
   2  18   8    1833.    3095.    1570. <
  -2  18   8    1774.     307.     792. <
   3  18   8     751.    2067.    1771. <
  -3  18   8     760.     921.     898. <
   4  18   8    7048.   10185.    1543. o
  -4  18   8    7015.    7657.     861. o
   0  20   8      42.    -791.     850. <
   1  20   8    1986.    1429.    1429. <
  -1  20   8    1976.     567.     863. <
   2  20   8     313.    -590.    1630. <
  -2  20   8     310.    1264.     815. <
   3  20   8    1357.    2339.    1653. <
  -3  20   8    1362.    2327.     826. o
   4  20   8     932.     118.    1665. <
  -4  20   8     922.    1795.     968. <
   0  22   8   39608.   43549.    1011. o
   1  22   8    2870.    2126.    1264. <
  -1  22   8    2823.    2232.     886. o
   2  22   8   35150.   33771.    1559. o
  -2  22   8   35313.   31514.     948. o
   3  22   8    3031.    5658.    1474. o
  -3  22   8    3044.    5694.     930. o
   0  24   8    6531.    5884.    1005. o
   1  24   8    1393.    -484.    1370. <
  -1  24   8    1375.    1772.     968. <
   2  24   8    8977.   10565.    1711. o
  -2  24   8    8974.    6712.     950. o
   3  24   8    1947.    1394.    1559. <
  -3  24   8    1953.    3732.     955. o
   0  26   8   10936.    6926.    1060. o
   1  26   8    1452.    2386.    1417. <
  -1  26   8    1449.    1913.     874. o
   2  26   8    7204.    6617.    1596. o
  -2  26   8    7245.    7220.     993. o
   0  28   8    3655.    3674.    1075. o
   1  28   8    1515.    1429.    1583. <
  -1  28   8    1498.     850.    1028. <
   2  28   8    4324.    5470.    1440. o
  -2  28   8    4342.    3107.     993. o
   0  30   8   26236.   17382.    1212. o
   1  30   8     915.    2256.    1370. <
  -1  30   8     893.     685.    1039. <
   0   1   9    1893.    1642.    1122. <
   1   1   9   23283.   26989.    1270. o
  -1   1   9   23056.   26724.    1029. o
   2   1   9    1970.     661.    1347. <
  -2   1   9    2003.     213.     851. <
   3   1   9   18897.   24965.    1549. o
  -3   1   9   18986.   17255.     744. o
   0   3   9     525.     756.    1146. <
   1   3   9    2774.    7205.    1235. o
  -1   3   9    2787.    2977.     980. o
   2   3   9    1501.     390.    1240. <
  -2   3   9    1523.      94.     756. <
   3   3   9    5204.    4029.    1525. o
  -3   3   9    5179.    2434.     771. o
   0   5   9    3030.    1843.    1146. <
   1   5   9     475.    4488.    1131. o
  -1   5   9     493.    1252.    1086. <
   2   5   9    1890.    3130.    1086. o
  -2   5   9    1922.     496.     815. <
   3   5   9    1808.    1228.    1500. <
  -3   5   9    1819.     614.     768. <
   0   7   9    2918.    2811.    1181. o
   1   7   9   37637.   41540.    1319. o
  -1   7   9   37419.   39224.    1096. o
   2   7   9    2392.    3484.    1334. o
  -2   7   9    2424.    1914.     815. o
   3   7   9   29540.   35480.    1697. o
  -3   7   9   29794.   24124.     931. o
   0   9   9     995.    1252.     957. <
   1   9   9    8312.    9915.    1297. o
  -1   9   9    8242.   10328.    1011. o
   2   9   9    3539.    4997.    1345. o
  -2   9   9    3551.    2126.     746. o
   3   9   9    6460.    8318.    1569. o
  -3   9   9    6530.    4703.     854. o
   0  11   9    1440.    1299.    1075. <
   1  11   9    8015.   10446.    1164. o
  -1  11   9    8059.    6169.     831. o
   2  11   9    1577.    2776.    1393. <
  -2  11   9    1594.     898.     815. <
   3  11   9    9704.    9525.    1489. o
  -3  11   9    9687.    3203.     838. o
   0  13   9    2540.     106.    1217. <
   1  13   9    3253.    3308.    1205. o
  -1  13   9    3202.    1666.     887. <
   2  13   9     710.    1842.    1417. <
  -2  13   9     761.     697.     874. <
   0  15   9    1291.     520.    1087. <
   1  15   9   31315.   36664.    1141. o
  -1  15   9   31106.   11529.     999. o
   2  15   9    2564.    3709.    1346. o
  -2  15   9    2582.     791.     839. <
   0  17   9     208.     248.    1134. <
   1  17   9     658.    2232.    1369. <
  -1  17   9     642.    1004.     933. <
   0  19   9    1718.    2740.    1251. o
   1  19   9    3692.    3780.    1382. o
  -1  19   9    3736.    2493.     970. o

loop_
 _twin_refln_datum_id
 _twin_refln_individual_id
 _twin_refln_index_h
 _twin_refln_index_k
 _twin_refln_index_l
 _twin_refln_F_squared_calc
 _twin_refln_F_squared_meas
 _twin_refln_F_squared_sigma
 _twin_refln_include_status
 ? ? ? ? ? ? ? ? ?