data_global

_audit_update_record
;
2019-02-04 # Formatted by publCIF

;
_publcif_datablock.id '{1f2888aa-5edf-4fda-a6b8-a867083b0f2c}'

# publcif _publ_body_element loop start
loop_
_publ_body_element
_publ_body_title
_publ_body_contents

 section 
;
Introduction
; 
;

;
 section 
;
Experimental
; 
;

;
 subsection 
;
Synthesis and crystallization
; 
;

;
 subsection 
;
Refinement
;
;
Crystal data, data collection and structure refinement details are summarized
in Table 1.
;

 section 
;
Results and discussion
; 
;

;
# publcif _publ_body_element loop end
_audit_creation_method                  'APEX3 v2017.3-0'

_publ_requested_journal                 ?

_publ_contact_author_name               ?
_publ_contact_author_address            
;
;
_publ_contact_author_email              ?
_publ_contact_author_fax                ?
_publ_contact_author_phone              ?

_publ_section_title                     
;
Title (type here to add)
;
_publ_section_abstract                  
;
(type here to add)
;
_publ_section_references                
;
(type here to add)
;

data_BPB-1
_publcif_datablock.id '{da15a8cf-4866-4801-851f-dae1af8d4ce6}'

_chemical_name_systematic               ?
_chemical_name_common                   ?
_chemical_formula_moiety                ?
_chemical_formula_sum                   'C8 H24 Br4 N2 Pb'
_chemical_formula_iupac                 ?
_chemical_formula_weight                675.12

_chemical_melting_point                 ?

_space_group_crystal_system             orthorhombic
_space_group_name_H-M_alt               'P b c a'
_space_group_name_Hall                  '-P 2ac 2ab'
loop_
    _space_group_symop_operation_xyz
    'x, y, z'
    '-x+1/2, -y, z+1/2'
    '-x, y+1/2, -z+1/2'
    'x+1/2, -y+1/2, -z'
    '-x, -y, -z'
    'x-1/2, y, -z-1/2'
    'x, -y-1/2, z-1/2'
    '-x-1/2, y-1/2, z'

_cell_length_a                          8.322(8)
_cell_length_b                          8.184(9)
_cell_length_c                          27.66(3)
_cell_angle_alpha                       90
_cell_angle_beta                        90
_cell_angle_gamma                       90
_cell_volume                            1884.(4)
_cell_formula_units_Z                   4
_cell_measurement_reflns_used           2620
_cell_measurement_theta_min             2.7840
_cell_measurement_theta_max             24.4095
_cell_measurement_temperature           298.(2)

_exptl_crystal_description              ?
_exptl_crystal_colour                   ?
_exptl_crystal_size_max                 ?
_exptl_crystal_size_mid                 ?
_exptl_crystal_size_min                 ?
_exptl_crystal_density_diffrn           2.253
_exptl_crystal_density_meas             ?
_exptl_crystal_density_method           'not measured'
_exptl_crystal_F_000                    1136

_exptl_absorpt_coefficient_mu           17.417
_exptl_absorpt_correction_type          multi-scan
_exptl_absorpt_process_details          
;
SADABS-2016/2 - Bruker AXS area detector scaling and absorption correction
;
_exptl_absorpt_correction_T_min         ?
_exptl_absorpt_correction_T_max         ?

_exptl_special_details                  
;
; 

_diffrn_ambient_temperature             298.(2)

_diffrn_source                          ?
_diffrn_source_type                     ?

_diffrn_radiation_type                  ?
_diffrn_radiation_wavelength            0.71073
_diffrn_radiation_monochromator         ?

_diffrn_measurement_device_type         ?
_diffrn_measurement_method              ?

_diffrn_detector_area_resol_mean        8.3333

_diffrn_reflns_number                   24655
_diffrn_reflns_av_R_equivalents         0.1025
_diffrn_reflns_av_unetI/netI            0.0545
_diffrn_reflns_theta_min                1.47
_diffrn_reflns_theta_max                28.57
_diffrn_reflns_theta_full               28.57
_diffrn_measured_fraction_theta_max     0.990
_diffrn_measured_fraction_theta_full    0.990
_diffrn_reflns_limit_h_min              -11
_diffrn_reflns_limit_h_max              10
_diffrn_reflns_limit_k_min              -11
_diffrn_reflns_limit_k_max              10
_diffrn_reflns_limit_l_min              -36
_diffrn_reflns_limit_l_max              36

_refine_special_details                 
;
;

_reflns_number_total                    2375
_reflns_number_gt                       1607
_reflns_threshold_expression            'I > 2\s(I)'

_refine_ls_structure_factor_coef        Fsqd
_refine_ls_matrix_type                  full
_refine_ls_R_factor_all                 0.1368
_refine_ls_R_factor_gt                  0.0975
_refine_ls_wR_factor_gt                 0.3054
_refine_ls_wR_factor_ref                0.3191
_refine_ls_goodness_of_fit_ref          2.029
_refine_ls_restrained_S_all             2.026
_refine_ls_number_reflns                2375
_refine_ls_number_parameters            72
_refine_ls_number_restraints            9
_refine_ls_number_constraints           ?
_refine_ls_hydrogen_treatment           constr
_refine_ls_weighting_scheme             calc
_refine_ls_weighting_details            
    'w=1/[\s^2^(Fo^2^)+(0.1000P)^2^] where P=(Fo^2^+2Fc^2^)/3'

_atom_sites_solution_hydrogens          geom
_atom_sites_solution_primary            ?
_atom_sites_solution_secondary          ?

_refine_ls_shift/su_max                 0.359
_refine_ls_shift/su_mean                0.011
_refine_diff_density_max                2.787
_refine_diff_density_min                -2.830
_refine_ls_extinction_method            none
_refine_ls_extinction_coef              ?

loop_
    _atom_type_symbol
    _atom_type_description
    _atom_type_scat_dispersion_real
    _atom_type_scat_dispersion_imag
    _atom_type_scat_source
    C C 0.0033 0.0016 'International Tables Vol C Tables 4.2.6.8 and 6.1.1.4'
    H H 0.0000 0.0000 'International Tables Vol C Tables 4.2.6.8 and 6.1.1.4'
    Br Br -0.2901 2.4595
     'International Tables Vol C Tables 4.2.6.8 and 6.1.1.4'
    N N 0.0061 0.0033 'International Tables Vol C Tables 4.2.6.8 and 6.1.1.4'
    Pb Pb -3.3944 10.1111
     'International Tables Vol C Tables 4.2.6.8 and 6.1.1.4'

_computing_data_collection              ?
_computing_cell_refinement              'SAINT V8.38A (Bruker AXS Inc., 2017)'
_computing_data_reduction               'SAINT V8.38A (Bruker AXS Inc., 2017)'
_computing_structure_solution           'SHELXT 2014/5 (Sheldrick, 2014)'
_computing_structure_refinement         'SHELXL-2016/6 (Sheldrick, 2016)'
_computing_molecular_graphics           'shelXle (C.B. Huebschle, rev 833)'
_computing_publication_material         ?

loop_
    _atom_site_type_symbol
    _atom_site_label
    _atom_site_fract_x
    _atom_site_fract_y
    _atom_site_fract_z
    _atom_site_U_iso_or_equiv
    _atom_site_adp_type
    _atom_site_calc_flag
    _atom_site_refinement_flags_adp
    _atom_site_refinement_flags_occupancy
    _atom_site_refinement_flags_posn
    _atom_site_occupancy
    _atom_site_disorder_assembly
    _atom_site_disorder_group
    Pb Pb01 0.5 1.0 0.5 0.0307(4) Uani d . P S 1 . .
    N N0 0.5756(17) 0.5709(19) 0.5893(7) 0.049(5) Uani d . . D 1 . .
    H H0A 0.55678 0.674578 0.597252 0.074 Uiso calc U . R 1 . .
    H H0B 0.563034 0.558244 0.557592 0.074 Uiso calc U . R 1 . .
    H H0C 0.675725 0.544553 0.597534 0.074 Uiso calc U . R 1 . .
    C C1 0.464(3) 0.466(3) 0.6148(9) 0.083(10) Uani d . . D 1 . .
    H H1A 0.478721 0.353781 0.604091 0.1 Uiso calc U . R 1 . .
    H H1B 0.354597 0.497727 0.60679 0.1 Uiso calc U . R 1 . .
    Br Br02 0.3052(3) 0.6939(3) 0.50262(7) 0.0488(7) Uani d . . . 1 . .
    C C2 0.486(2) 0.4741(19) 0.6698(9) 0.057(8) Uani d . . D 1 . .
    H H2A 0.59305 0.435984 0.678308 0.068 Uiso calc U . R 1 . .
    H H2B 0.475709 0.586309 0.680666 0.068 Uiso calc U . R 1 . .
    Br Br03 0.4679(3) 1.0221(2) 0.39154(10) 0.0478(7) Uani d . . . 1 . .
    C C3 0.359(3) 0.367(4) 0.6945(10) 0.111(11) Uani d . . D 1 . .
    H H3A 0.368173 0.254305 0.684084 0.133 Uiso calc U . R 1 . .
    H H3B 0.251741 0.406258 0.687483 0.133 Uiso calc U . R 1 . .
    C C4 0.398(5) 0.384(5) 0.7486(11) 0.18(2) Uani d . . D 1 . .
    H H4A 0.361645 0.288097 0.765424 0.277 Uiso calc U . R 1 . .
    H H4B 0.344262 0.478342 0.761385 0.277 Uiso calc U . R 1 . .
    H H4C 0.511775 0.395655 0.752806 0.277 Uiso calc U . R 1 . .

loop_
    _atom_site_aniso_label
    _atom_site_aniso_U_11
    _atom_site_aniso_U_22
    _atom_site_aniso_U_33
    _atom_site_aniso_U_12
    _atom_site_aniso_U_13
    _atom_site_aniso_U_23
    Pb01 0.0220(6) 0.0215(6) 0.0486(8) 0.0001(3) -0.0006(4) -0.0004(4)
    N0 0.015(9) 0.047(10) 0.085(14) 0.006(7) 0.009(8) -0.003(9)
    C1 0.052(16) 0.09(2) 0.11(3) -0.046(15) -0.011(17) -0.012(17)
    Br02 0.0348(12) 0.0360(11) 0.0755(18) -0.0156(9) -0.0080(10) 0.0038(10)
    C2 0.036(14) 0.019(8) 0.12(2) -0.027(8) 0.000(12) -0.004(11)
    Br03 0.0494(13) 0.0366(10) 0.0575(15) 0.0123(9) 0.0066(11) -0.0033(9)
    C3 0.11(3) 0.11(3) 0.11(3) -0.01(2) 0.00(2) 0.02(2)
    C4 0.28(7) 0.20(5) 0.08(3) 0.00(6) 0.02(3) 0.05(3)

_geom_special_details                   
;

All esds (except the esd in the dihedral angle between two l.s. planes)
are estimated using the full covariance matrix.  The cell esds are taken
into account individually in the estimation of esds in distances, angles
and torsion angles; correlations between esds in cell parameters are only
used when they are defined by crystal symmetry.  An approximate (isotropic)
treatment of cell esds is used for estimating esds involving l.s. planes.
;

loop_
    _geom_bond_atom_site_label_1
    _geom_bond_atom_site_label_2
    _geom_bond_site_symmetry_2
    _geom_bond_distance
    _geom_bond_publ_flag
    Pb01 Br02 . 2.985(3) ?
    Pb01 Br02 5_676 2.985(3) ?
    Pb01 Br02 8_665 2.996(3) ?
    Pb01 Br02 4_566 2.996(3) ?
    Pb01 Br03 5_676 3.017(4) ?
    Pb01 Br03 . 3.017(4) ?
    N0 C1 . 1.452(17) ?
    N0 H0A . 0.89 ?
    N0 H0B . 0.89 ?
    N0 H0C . 0.89 ?
    C1 C2 . 1.535(14) ?
    C1 H1A . 0.97 ?
    C1 H1B . 0.97 ?
    C2 C3 . 1.534(13) ?
    C2 H2A . 0.97 ?
    C2 H2B . 0.97 ?
    C3 C4 . 1.536(14) ?
    C3 H3A . 0.97 ?
    C3 H3B . 0.97 ?
    C4 H4A . 0.96 ?
    C4 H4B . 0.96 ?
    C4 H4C . 0.96 ?

loop_
    _geom_angle_atom_site_label_1
    _geom_angle_atom_site_label_2
    _geom_angle_atom_site_label_3
    _geom_angle_site_symmetry_1
    _geom_angle_site_symmetry_3
    _geom_angle
    _geom_angle_publ_flag
    Br02 Pb01 Br02 . 5_676 180.0 ?
    Br02 Pb01 Br02 . 8_665 89.06(8) ?
    Br02 Pb01 Br02 5_676 8_665 90.94(8) ?
    Br02 Pb01 Br02 . 4_566 90.94(8) ?
    Br02 Pb01 Br02 5_676 4_566 89.06(8) ?
    Br02 Pb01 Br02 8_665 4_566 180.0 ?
    Br02 Pb01 Br03 . 5_676 88.49(6) ?
    Br02 Pb01 Br03 5_676 5_676 91.51(6) ?
    Br02 Pb01 Br03 8_665 5_676 94.75(6) ?
    Br02 Pb01 Br03 4_566 5_676 85.25(6) ?
    Br02 Pb01 Br03 . . 91.51(6) ?
    Br02 Pb01 Br03 5_676 . 88.49(6) ?
    Br02 Pb01 Br03 8_665 . 85.25(6) ?
    Br02 Pb01 Br03 4_566 . 94.75(6) ?
    Br03 Pb01 Br03 5_676 . 180.0 ?
    C1 N0 H0A . . 109.5 ?
    C1 N0 H0B . . 109.5 ?
    H0A N0 H0B . . 109.5 ?
    C1 N0 H0C . . 109.5 ?
    H0A N0 H0C . . 109.5 ?
    H0B N0 H0C . . 109.5 ?
    N0 C1 C2 . . 112.0(18) ?
    N0 C1 H1A . . 109.2 ?
    C2 C1 H1A . . 109.2 ?
    N0 C1 H1B . . 109.2 ?
    C2 C1 H1B . . 109.2 ?
    H1A C1 H1B . . 107.9 ?
    Pb01 Br02 Pb01 . 4_466 154.77(9) ?
    C3 C2 C1 . . 109.3(17) ?
    C3 C2 H2A . . 109.8 ?
    C1 C2 H2A . . 109.8 ?
    C3 C2 H2B . . 109.8 ?
    C1 C2 H2B . . 109.8 ?
    H2A C2 H2B . . 108.3 ?
    C2 C3 C4 . . 104.(3) ?
    C2 C3 H3A . . 111.0 ?
    C4 C3 H3A . . 111.0 ?
    C2 C3 H3B . . 111.0 ?
    C4 C3 H3B . . 111.0 ?
    H3A C3 H3B . . 109.0 ?
    C3 C4 H4A . . 109.5 ?
    C3 C4 H4B . . 109.5 ?
    H4A C4 H4B . . 109.5 ?
    C3 C4 H4C . . 109.5 ?
    H4A C4 H4C . . 109.5 ?
    H4B C4 H4C . . 109.5 ?

_shelx_res_file                         
;

TITL mo_BPB_M_4_0m_a.res in Pbca
    mo_BPB_M_4_0m_a.res
    created by SHELXL-2016/6 at 01:25:42 on 02-Feb-2019
REM Old TITL mo_BPB_M_4_0m in Pbca
REM SHELXT solution in Pbca
REM R1 0.262,  Rweak 0.010,  Alpha 0.064,  Orientation a'=b, b'=a, c'=-c
REM Formula found by SHELXT:  Br4 N4 Pb
CELL  0.71073   8.3220   8.1841  27.6561   90.000   90.000   90.000
ZERR    4.000   0.0084   0.0093   0.0301    0.000    0.000    0.000
LATT  1
SYMM 1/2-X, -Y, 1/2+Z
SYMM -X, 1/2+Y, 1/2-Z
SYMM 1/2+X, 1/2-Y, -Z
SFAC C H BR N PB
UNIT 24 48 16 8 4
ACTA
FLAT 0.1 C4 C3 C2 C1 N0
DFIX 1.47 0.02 C1 N0
DFIX 1.54 0.02 C2 C1
DFIX 1.54 0.02 C3 C2
DFIX 1.54 0.02 C3 C4
DFIX 1.54 0.02 C4 C3
DFIX 1.54 0.02 C3 C2
DFIX 1.54 0.02 C2 C1
TEMP 25.000
L.S. 10
BOND $H
LIST 6
FMAP 2
PLAN 20
WGHT    0.100000
FVAR       0.14539
PB01  5    0.500000    1.000000    0.500000    10.50000    0.02197    0.02148 =
         0.04859   -0.00037   -0.00059    0.00007
N0    4    0.575622    0.570935    0.589328    11.00000    0.01465    0.04690 =
         0.08550   -0.00295    0.00942    0.00614
AFIX 137
H0A   2    0.556780    0.674578    0.597252    11.00000   -1.50000
H0B   2    0.563034    0.558244    0.557592    11.00000   -1.50000
H0C   2    0.675725    0.544553    0.597534    11.00000   -1.50000
AFIX   0
C1    1    0.463605    0.465611    0.614783    11.00000    0.05216    0.08710 =
         0.11069   -0.01246   -0.01110   -0.04605
AFIX  23
H1A   2    0.478721    0.353781    0.604091    11.00000   -1.20000
H1B   2    0.354597    0.497727    0.606790    11.00000   -1.20000
AFIX   0
BR02  3    0.305162    0.693934    0.502625    11.00000    0.03484    0.03604 =
         0.07551    0.00379   -0.00799   -0.01559
C2    1    0.486389    0.474149    0.669793    11.00000    0.03553    0.01902 =
         0.11560   -0.00350   -0.00001   -0.02697
AFIX  23
H2A   2    0.593050    0.435984    0.678308    11.00000   -1.20000
H2B   2    0.475709    0.586309    0.680666    11.00000   -1.20000
AFIX   0
BR03  3    0.467883    1.022067    0.391545    11.00000    0.04937    0.03658 =
         0.05750   -0.00334    0.00657    0.01235
C3    1    0.359255    0.367111    0.694505    11.00000    0.10636    0.11289 =
         0.11243    0.01741    0.00358   -0.01157
AFIX  23
H3A   2    0.368173    0.254305    0.684084    11.00000   -1.20000
H3B   2    0.251741    0.406258    0.687483    11.00000   -1.20000
AFIX   0
C4    1    0.397854    0.383874    0.748604    11.00000    0.27507    0.19523 =
         0.08445    0.04917    0.02011    0.00390
AFIX 137
H4A   2    0.361645    0.288097    0.765424    11.00000   -1.50000
H4B   2    0.344262    0.478342    0.761385    11.00000   -1.50000
H4C   2    0.511775    0.395655    0.752806    11.00000   -1.50000
AFIX   0
HKLF 4




REM  mo_BPB_M_4_0m_a.res in Pbca
REM R1 =  0.0975 for    1607 Fo > 4sig(Fo)  and  0.1368 for all    2375 data
REM     72 parameters refined using      9 restraints

END

WGHT      0.0740    118.7209

REM Highest difference peak  2.787,  deepest hole -2.830,  1-sigma level  0.399
Q1    1   0.4207  1.0848  0.3929  11.00000  0.05    2.79
Q2    1   0.4308  0.9241  0.3934  11.00000  0.05    2.68
Q3    1   0.5901  0.9493  0.3913  11.00000  0.05    2.12
Q4    1   0.6813  0.2677  0.6038  11.00000  0.05    1.47
Q5    1   0.3176  0.2651  0.6065  11.00000  0.05    1.41
Q6    1   0.5006  1.0285  0.3568  11.00000  0.05    1.40
Q7    1   0.6781  0.6524  0.6114  11.00000  0.05    1.38
Q8    1   0.3177  0.6531  0.6120  11.00000  0.05    1.35
Q9    1   0.5119  1.0474  0.4691  11.00000  0.05    1.34
Q10   1   0.5017  0.4534  0.7857  11.00000  0.05    1.26
Q11   1   0.5142  0.4902  0.6191  11.00000  0.05    1.22
Q12   1   0.5356  0.9007  0.4086  11.00000  0.05    1.20
Q13   1   0.5773  0.9949  0.5392  11.00000  0.05    1.17
Q14   1   0.4040  1.0021  0.4998  11.00000  0.05    1.15
Q15   1   0.5099  1.0232  0.4296  11.00000  0.05    1.14
Q16   1   0.4151  0.5503  0.6721  11.00000  0.05    1.08
Q17   1   0.4608  0.3906  0.6605  11.00000  0.05    0.99
Q18   1   0.5481  0.8980  0.3696  11.00000  0.05    0.99
Q19   1   0.5068  1.0839  0.5227  11.00000  0.05    0.98
Q20   1   0.5892  0.5562  0.6744  11.00000  0.05    0.96
;
_shelx_res_checksum                     14466

_shelx_hkl_file                         
;
   0   1   0    2.20    0.50
   0   1   0    5.00    1.80
   0   1   0    2.30    0.60
   0  -1   0    3.40    1.10
   0  -1   0    3.50    0.90
   0  -1   0    4.50    1.90
   0  -1   0    1.40    0.70
   0  -1   0    2.60    0.50
   0   1   0    5.30    1.40
   0   2   0 4008.80  324.97
   0   2   0 4175.68  323.57
   0   2   0 3937.61  324.57
   0  -2   0 3932.11  323.77
   0  -2   0 4070.29  325.47
   0  -2   0 4226.88  323.57
   0  -2   0 4402.56  323.97
   0  -2   0 4090.59  324.07
   0   3   0    1.80    1.30
   0   3   0    4.20    5.00
   0  -3   0   -3.80    1.70
   0   3   0    1.30    4.30
   0  -3   0    2.40    5.10
   0  -3   0   -0.30    2.00
   0  -3   0    3.60    2.60
   0  -3   0    4.50    2.50
   0  -4   0 3189.18  263.47
   0  -4   0 3516.75  262.97
   0   4   0 3431.56  265.77
   0  -4   0 3182.68  263.57
   0   5   0    6.60    7.90
   0  -5   0    2.80    1.20
   0  -5   0    0.10    3.50
   0  -5   0    3.70    4.10
   0  -5   0   -1.70    5.30
   0   6   0 1796.32  152.68
   0  -6   0 1952.70  148.79
   0  -6   0 1858.81  149.49
   0   7   0    8.30   11.60
   0  -7   0    0.00    6.00
   0  -7   0   -4.80    6.20
   0  -8   0  133.39   14.30
   0   8   0  131.19   21.20
   0  -8   0  128.19   15.50
   0  -9   0   -3.10    8.30
   0  -9   0   -2.00    8.80
   0   9   0    0.70   13.70
   0 -10   0  370.86   33.10
   0  10   0  324.37   43.50
   0 -11   0    2.00   13.30
  -1   0   0    3.70    0.70
   1   0   0    2.30    0.80
  -1   0   0    2.30    1.10
   1   0   0    2.00    1.10
   1   0   0    2.80    1.90
  -1   0   0    3.00    1.70
  -1   0   0    1.50    1.00
  -1   1   0   10.30    2.00
  -1   1   0   13.30    1.90
  -1   1   0    9.60    1.50
   1  -1   0   10.70    1.80
   1  -1   0   13.60    1.60
   1   1   0   10.90    2.70
   1  -1   0   13.10    2.10
   1  -1   0   11.60    2.00
  -1  -1   0    6.30    1.80
  -1  -1   0    8.50    2.40
   1  -2   0    2.50    2.00
   1  -2   0    2.90    2.00
  -1   2   0    1.90    1.50
  -1   2   0    1.80    1.80
  -1   2   0    2.10    1.00
   1   2   0    3.70    3.00
  -1  -2   0    0.30    1.50
  -1   2   0   -0.90    3.00
   1  -2   0    4.10    1.80
  -1  -2   0    2.00    2.70
  -1  -3   0   33.20    7.90
   1  -3   0   28.00    4.30
   1  -3   0   46.10    5.10
  -1   4   0    3.10    1.10
  -1  -4   0   13.40    5.70
   1   4   0   13.80    5.90
  -1  -4   0    5.70    2.30
  -1  -4   0   10.30    3.40
  -1   4   0    7.80    7.70
   1  -4   0    7.60    3.80
   1  -4   0    5.70    3.10
   1  -4   0   21.10    6.10
  -1  -5   0   37.20    5.50
   1  -5   0   53.89    8.70
   1  -5   0   29.70    5.80
   1  -6   0   17.20    6.30
  -1  -6   0   14.60    5.50
  -1  -6   0   14.40    5.00
   1  -6   0   11.30    5.20
  -1   6   0   20.20   11.80
  -1  -6   0   14.90    6.40
   1   6   0   14.20    9.80
   1  -7   0   51.79    8.60
  -1   7   0   84.99   16.40
  -1  -7   0   53.99    8.40
  -1  -8   0    7.50    8.00
  -1   8   0   -7.30   13.90
   1   8   0    0.30   11.90
   1  -8   0    4.80    7.80
   1  -8   0   -2.60    6.70
  -1  -8   0   -2.20    7.30
   1  -9   0   49.00   11.00
  -1   9   0   61.19   19.40
   1   9   0   40.80   18.30
  -1  -9   0   37.50   10.70
  -1  -9   0   40.60   10.30
   1  -9   0   31.40   10.40
  -1  10   0    8.40   18.60
   1 -10   0    4.90   11.30
   1  10   0   11.50   18.70
  -1 -10   0   -0.90   10.20
   2   0   0 4002.20  321.17
  -2   0   0 4142.19  321.17
  -2   0   0 4103.19  321.07
  -2   0   0 3955.00  320.57
   2   0   0 4144.29  320.77
   2  -1   0   91.29    8.10
  -2   1   0   84.69    7.70
   2  -1   0   78.99    7.90
  -2   1   0   78.39    7.80
  -2  -1   0   85.89    8.40
   2   1   0   82.69    8.80
  -2   1   0   77.19    7.80
   2  -1   0   83.19    7.60
  -2   1   0   84.59    7.10
   2   1   0   83.89    7.80
   2  -1   0   84.69    7.10
   2  -2   0 9137.79  661.23
  -2   2   0 8256.17  659.73
   2  -2   0 8568.24  660.43
  -2   2   0 9099.09  662.63
  -2  -2   0 8445.16  661.23
   2   2   0 7830.42  661.13
  -2   2   0 8185.38  660.43
  -2  -2   0 7878.31  661.23
   2  -2   0 7731.63  661.93
   2  -2   0 8642.04  660.13
   2  -3   0  361.16   28.80
   2   3   0  361.16   30.30
  -2   3   0  305.67   29.50
   2  -3   0  347.77   28.00
   2  -3   0  342.87   28.00
  -2  -3   0  333.17   27.80
  -2   3   0  348.27   27.90
  -2  -4   0 2215.98  167.08
   2  -4   0 2051.39  167.98
   2  -4   0 2148.19  167.28
  -2   4   0 2134.69  166.98
   2   4   0 1982.20  169.48
   2  -4   0 2133.49  167.28
  -2   5   0   71.09   17.70
   2  -5   0   85.49    9.10
  -2  -5   0   88.19    9.00
   2  -5   0   92.39   10.70
  -2  -5   0   87.69    9.10
  -2  -5   0   56.79   13.80
  -2   5   0   96.29    9.90
   2  -5   0   84.29    9.50
   2   5   0   78.49   13.10
   2   6   0  677.23   61.99
   2  -6   0  721.83   58.19
   2  -6   0  720.03   59.19
  -2  -6   0  731.33   58.09
  -2  -6   0  733.03   61.29
  -2  -6   0  717.93   57.89
  -2   6   0  704.93   64.89
  -2   7   0   20.30   14.10
  -2  -7   0   19.70    6.20
   2  -7   0   25.70    7.20
   2   7   0   13.20   11.40
   2  -7   0   25.40    8.40
  -2  -7   0   17.90    7.00
  -2  -7   0   31.50    9.70
  -2  -8   0  702.63   60.59
   2  -8   0  718.93   60.29
   2   8   0  692.23   65.69
  -2  -8   0  735.93   58.99
   2  -8   0  761.42   59.39
  -2   8   0  676.13   67.09
   2  -9   0   60.19   12.70
  -2  -9   0   64.29   12.90
   2  -9   0   47.10   11.00
  -2  -9   0   61.19   11.30
  -2   9   0   58.39   21.40
   2   9   0   51.89   18.60
   2  10   0   63.99   22.70
  -2 -10   0   83.09   14.60
  -2  10   0   83.39   24.90
   2 -10   0   68.89   13.40
  -3   0   0    0.20    3.40
  -3   0   0    1.00    2.90
  -3   0   0    5.90    4.10
   3   0   0    4.40    3.00
  -3   0   0   -1.30    1.40
   3   0   0    0.10    4.60
  -3   1   0   19.20    2.70
   3  -1   0   16.10    3.90
  -3   1   0   15.70    4.00
   3  -1   0   24.70    4.60
   3  -2   0   -0.20    2.70
  -3   2   0    3.50    3.30
   3   2   0    3.90    4.70
   3  -2   0   -2.00    1.90
   3  -2   0    0.60    3.30
  -3   2   0    1.50    3.10
  -3  -2   0    4.50    3.90
   3  -2   0    3.60    2.50
   3  -3   0    4.40    3.20
   3  -3   0    7.90    4.40
  -3   3   0   -0.90    2.60
   3   3   0   15.00    6.10
   3  -3   0    3.10    3.20
  -3   3   0   10.90    4.20
  -3  -3   0    8.60    4.10
  -3  -4   0    5.70    3.40
   3   4   0    7.80    7.00
   3  -4   0    6.80    5.40
   3  -4   0    0.00    3.50
  -3   4   0   -0.60    2.50
   3  -4   0    5.00    3.40
  -3  -4   0    5.50    5.20
  -3   4   0    6.00    7.20
  -3   5   0   76.49   12.80
   3  -5   0  102.89    9.50
  -3  -5   0   48.40   17.70
   3  -6   0   -2.40    5.60
  -3   6   0  -31.40   15.80
   3  -6   0    1.00    6.70
  -3  -6   0  -25.50   10.20
  -3  -6   0   -2.60    4.90
  -3  -6   0   -3.70    5.00
  -3   6   0    6.90    6.50
   3   6   0    2.90    9.80
  -3   7   0   22.30   18.90
   3   7   0   29.40   13.20
  -3  -7   0   15.80    6.60
  -3  -7   0   18.80   12.30
  -3  -7   0   25.50    7.00
   3  -7   0   22.10    7.10
   3  -7   0   27.10    9.20
   3  -8   0    0.20    9.40
   3  -8   0    4.00    7.60
   3   8   0   16.40   14.80
  -3  -8   0    8.00    7.70
  -3  -8   0   10.20   11.30
  -3  -8   0   -0.40   11.60
  -3   8   0    9.50   19.10
  -3   9   0   30.00   21.40
  -3  -9   0   26.40    9.60
   3  -9   0   36.80   12.10
   3  -9   0   32.60   10.10
   3   9   0   33.40   17.80
  -3  -9   0   38.40   17.80
   3  10   0    7.40   21.50
  -3 -10   0   -3.90   10.30
  -3  10   0   -5.10   21.10
   3 -10   0   12.70   11.50
   3 -10   0    4.60   12.20
  -3 -10   0   -8.30   16.30
  -4   0   0 2686.43  218.18
   4   0   0 2816.12  219.28
   4   0   0 2528.25  221.18
  -4   0   0 2882.61  220.48
  -4   0   0 2905.41  219.38
  -4   1   0  836.32   63.79
   4  -1   0  803.22   64.09
  -4   1   0  824.72   62.69
  -4  -1   0  759.02   63.79
  -4  -1   0  825.22   62.89
  -4   1   0  734.63   63.69
   4   1   0  711.83   63.79
   4  -1   0  801.22   62.89
   4  -2   0 1816.32  144.09
  -4   2   0 1734.03  143.49
   4  -2   0 1749.32  142.59
  -4   2   0 1833.52  143.39
  -4  -2   0 1877.91  145.29
   4  -3   0    6.80    5.30
   4   3   0    8.40    7.20
  -4   3   0    4.60    4.60
   4  -3   0    1.40    3.60
  -4  -3   0    0.80    5.50
   4   4   0 1636.04  135.59
   4  -4   0 1728.03  132.29
   4  -4   0 1716.23  133.69
  -4  -4   0 1721.63  131.89
  -4   4   0 1614.44  133.39
  -4  -4   0 1554.54  133.89
   4  -5   0   25.40    5.90
  -4   5   0   -2.90    9.90
   4  -5   0   23.70    7.60
  -4  -5   0   17.50    5.20
  -4  -5   0   22.30    8.30
   4   5   0   29.40   11.80
  -4  -6   0  623.94   52.69
   4  -6   0  638.24   51.99
   4   6   0  593.84   57.19
   4  -6   0  668.43   53.99
  -4  -6   0  607.24   51.59
  -4  -6   0  664.43   55.59
   4   7   0  186.88   27.50
  -4   7   0  171.08   37.10
  -4  -7   0  182.88   17.90
  -4   7   0  200.98   22.30
   4  -7   0  195.98   21.40
   4  -7   0  173.98   18.80
  -4  -7   0  195.48   19.20
  -4  -7   0  181.78   24.40
  -4  -8   0  241.48   31.70
   4  -8   0  251.27   25.60
  -4   8   0  275.27   42.00
   4   8   0  268.87   35.90
   4  -8   0  279.57   28.40
  -4  -8   0  307.57   31.30
  -4  -8   0  269.07   24.90
   4   9   0   20.10   18.20
  -4   9   0    8.30   22.30
   4  -9   0   21.80   13.30
  -4  -9   0   23.90    9.60
  -4  -9   0    1.50   16.80
   4  -9   0   20.00   11.10
   4  10   0  159.68   31.10
  -4  10   0  162.88   37.90
   4 -10   0  187.58   22.10
  -4 -10   0  125.39   27.60
   4 -10   0  170.78   23.80
  -4 -10   0  156.58   21.60
  -5   0   0    6.30    6.20
  -5   0   0   -2.10    5.20
   5  -1   0   37.00    7.40
  -5  -1   0   21.50    4.70
  -5  -1   0   13.90    9.30
  -5  -1   0   23.70    6.80
  -5   1   0   27.30    6.70
   5  -1   0   40.70    5.70
  -5   2   0    1.70    4.70
   5  -2   0    0.70    5.70
  -5   2   0   -2.90    5.50
  -5  -2   0   -9.40    8.60
   5  -2   0   -2.50    3.50
  -5  -2   0    7.80    6.90
   5  -3   0  128.09   14.70
  -5   4   0   -0.60    5.90
  -5  -4   0    2.60    4.40
   5   4   0    0.50    9.00
   5  -4   0    2.00    4.30
   5  -4   0    3.20    7.60
  -5  -4   0    3.70    7.80
   5  -5   0    1.60    5.90
  -5   5   0    7.90   10.30
   5  -5   0    6.90    7.70
   5   5   0    6.90   11.90
  -5  -5   0    4.90    9.30
  -5  -5   0   11.60    5.00
   5   6   0   -0.60   11.80
  -5  -6   0    6.10   10.70
   5  -6   0   -2.30    6.80
   5  -6   0   -3.70    9.10
  -5  -6   0    2.00    5.50
  -5   6   0   19.60   10.80
   5  -7   0   81.19   11.50
   5  -7   0   65.49   13.10
   5   7   0   76.39   18.60
  -5  -7   0   71.89   10.00
  -5  -7   0   31.40   21.10
  -5  -7   0   59.29   16.40
  -5  -8   0  -23.30   17.50
  -5   8   0  -11.50   28.10
   5  -8   0    0.30   10.50
  -5  -8   0    3.90   15.10
  -5  -8   0    3.20    9.10
   5   8   0    7.60   18.30
   5  -8   0   -0.80    9.00
  -5  -9   0   12.20   18.10
  -5   9   0   46.30   29.50
   5  -9   0   25.20   10.20
   5  -9   0   22.90   11.90
  -5  -9   0   38.00   10.60
   5   9   0   24.40   21.80
  -6   0   0 1346.97  112.19
  -6   0   0 1434.36  113.29
  -6  -1   0  180.98   18.70
  -6   1   0  168.78   18.20
  -6  -1   0  170.28   23.20
  -6   1   0  187.78   17.70
   6  -1   0  156.38   17.10
  -6  -2   0  511.75   42.90
  -6   2   0  504.15   42.20
   6  -2   0  448.76   40.70
   6  -2   0  482.05   42.80
  -6   2   0  533.75   42.40
  -6  -3   0  153.68   17.70
  -6  -3   0  155.08   23.70
  -6   3   0  132.99   15.80
   6  -3   0  142.09   14.00
   6  -3   0  161.58   17.40
   6  -4   0  463.15   41.10
  -6  -4   0  535.75   43.90
  -6  -4   0  523.45   46.80
  -6   4   0  474.35   42.90
   6  -4   0  500.05   43.60
  -6  -5   0   44.70   13.70
   6  -5   0   50.39   12.60
  -6  -5   0   43.00   12.60
  -6   5   0   62.59   13.00
  -6  -5   0   52.59    7.90
   6  -5   0   33.00    8.40
  -6  -6   0  584.44   48.60
  -6  -6   0  544.85   45.70
   6  -6   0  553.64   48.80
  -6  -6   0  563.74   51.89
   6   6   0  507.75   52.69
   6  -6   0  558.04   46.40
  -6  -7   0  -16.80    8.40
  -6  -7   0  -16.90   21.90
   6   7   0    4.10   15.50
  -6  -7   0    3.40   13.10
   6  -7   0   -6.90    9.60
  -6  -7   0   -3.90    6.90
   6  -7   0   -0.90    8.30
  -6  -7   0   -0.70   13.90
  -6  -8   0   28.20   34.00
   6   8   0   85.19   24.10
   6  -8   0  107.29   18.40
  -6  -8   0   97.69   20.60
   6  -8   0  101.59   15.30
  -6  -8   0   99.89   14.40
  -6  -8   0   87.39   21.80
  -6   9   0   66.29   38.90
  -6  -9   0   75.89   23.50
   6  -9   0   62.59   18.40
   6  -9   0   42.40   13.60
   6   9   0   69.29   24.40
  -6  -9   0   61.69   20.00
  -7   0   0    8.90    8.30
  -7   0   0   -7.90    9.10
  -7  -1   0   56.99   11.60
  -7   1   0   75.29   12.40
  -7  -1   0   57.39   14.30
  -7   1   0   58.19   10.20
   7  -1   0   49.10   11.70
  -7   2   0    5.70    7.20
  -7  -2   0    8.40    9.00
  -7  -2   0    4.60   13.20
  -7   2   0   16.80    9.20
   7  -2   0   13.50    7.10
  -7  -3   0   -1.00   12.30
   7  -3   0   23.90    9.70
  -7  -3   0   23.80   11.40
   7  -3   0   21.70    7.00
  -7   3   0   20.60    9.40
  -7  -4   0   -2.40   13.60
  -7  -4   0   16.00   11.80
   7  -4   0    4.60    9.20
  -7   4   0    2.00    9.10
   7  -4   0    7.90    6.30
  -7  -5   0   77.09   16.00
   7  -5   0   44.50   13.10
  -7   5   0   49.70   13.50
  -7  -5   0   62.39    8.90
   7  -5   0   61.19   10.20
  -7  -5   0   65.79   18.60
  -7  -6   0    3.40   14.60
   7  -6   0    3.30    8.00
   7  -6   0   -0.30   10.30
  -7  -6   0    9.70   12.00
  -7  -6   0    4.90    7.40
  -7  -7   0   18.50   16.60
  -7  -7   0   -5.80   11.90
  -7  -7   0    6.90   12.80
   7  -7   0    3.00    8.70
   7  -7   0   12.90   12.20
  -7  -8   0    6.30   16.90
  -7  -8   0   -2.10   16.90
   7  -8   0    2.80    9.90
   7  -8   0   -4.10   11.70
  -8   0   0   47.30   11.80
  -8   0   0   38.90   13.10
  -8   1   0   27.40    9.60
  -8  -1   0   39.60   13.00
  -8   1   0   44.10   12.80
  -8  -1   0   37.90   12.30
  -8   2   0  544.25   47.50
  -8  -2   0  521.85   52.49
  -8   2   0  529.55   46.70
   8  -2   0  542.15   46.50
  -8  -2   0  531.85   48.10
  -8   3   0    1.10   10.40
   8  -3   0    2.10    7.50
  -8  -3   0    5.20   11.20
  -8  -3   0  -13.20   12.00
  -8  -4   0  210.68   26.60
  -8   4   0  177.18   22.20
   8  -4   0  197.18   23.60
   8  -4   0  204.48   19.80
  -8   5   0   38.40   14.10
   8  -5   0   23.70   13.10
   8  -5   0   26.30    9.30
  -8  -5   0   20.90   13.30
  -8  -5   0   28.80   18.60
  -8  -6   0   61.09   23.20
   8  -6   0   79.89   18.20
  -8  -6   0   58.19   19.40
   8  -6   0   78.09   13.00
   8  -7   0   31.40   10.60
  -8  -7   0    5.80   18.50
  -8  -7   0   22.20   19.80
  -8  -7   0  -29.90   13.80
   8  -7   0   13.00   15.50
  -9   0   0    3.70    9.90
  -9   0   0   -8.00   11.00
  -9  -1   0   25.80   13.40
  -9   1   0   26.70   10.50
  -9  -1   0   29.40   13.50
  -9   1   0   27.10   14.40
  -9   2   0    8.70   10.60
  -9  -2   0   13.30   12.90
  -9   2   0    1.70   11.90
   9  -2   0    6.00   11.90
  -9  -2   0    5.10   15.40
  -9  -3   0   22.40   19.20
   9  -3   0   23.40   11.00
  -9  -3   0   41.40   17.50
  -9   3   0   18.80   13.60
   9  -4   0   16.30    9.90
  -9  -4   0   18.00   14.60
  -9   4   0    8.70   12.70
  -9  -4   0   21.70   18.10
   9  -5   0   18.60   10.50
   9  -5   0   28.60   14.70
  -9  -5   0   21.10   15.60
  -9   5   0   16.10   18.60
  -9  -6   0  -17.80   20.10
   9  -6   0    8.60   16.60
   9  -6   0   20.00   10.40
 -10   0   0  261.87   31.70
 -10   1   0    7.70   13.80
 -10  -1   0    8.10   17.10
 -10  -2   0   33.90   19.50
 -10   2   0   34.50   15.80
 -10  -3   0   10.30   15.70
 -10   3   0   -7.60   13.70
 -10  -4   0  160.18   29.60
 -10   4   0  138.89   24.00
 -11   0   0    5.60   18.70
 -11   1   0   14.40   18.50
 -11  -1   0   13.70   19.70
   0  -1  -1    0.00    1.40
   0  -1   1    0.90    0.60
   0  -1   1   -0.90    2.00
   0   1   1    0.00    0.70
   0   1   1    0.00    1.80
   0   1   1    0.00    1.30
   0  -1  -1    1.50    1.60
   0   1  -1   -1.00    2.00
   0  -1  -1    0.50    0.90
   0  -1  -1    0.80    0.80
   0   1  -1    0.80    0.90
   0   1  -1   -0.40    0.60
   0   1  -1    0.80    1.00
   0  -1   1    0.60    0.70
   0  -1   1    1.00    1.10
   0   1   1    0.80    0.20
   0   2   1  244.48   19.50
   0   2   1  218.68   18.90
   0  -2  -1  238.18   18.60
   0   2   1  178.78   17.60
   0  -2  -1  230.28   17.70
   0  -2   1  213.58   17.60
   0  -2   1  197.08   17.30
   0   2  -1  227.58   18.60
   0   2  -1  227.68   19.80
   0  -2  -1  254.77   19.90
   0  -2   1  194.68   17.80
   0  -2   1  204.48   18.00
   0   2   1  215.58   17.50
   0  -2   1  218.28   20.00
   0  -2  -1  237.48   18.00
   0   2  -1  217.68   17.60
   0  -3  -1   -2.10    2.20
   0   3   1    3.40    4.30
   0   3  -1    1.40    5.10
   0   3  -1    1.70    4.30
   0  -3   1    2.80    2.10
   0  -3   1    2.30    2.10
   0  -3   1   -2.20    1.20
   0  -3  -1    4.10    2.10
   0  -3  -1   -1.30    5.20
   0   3  -1   -0.60    0.90
   0  -3   1    1.50    2.70
   0   3   1   -0.50    4.50
   0  -3  -1    3.70    3.00
   0  -3  -1   -0.10    2.30
   0  -3   1   -1.10    5.00
   0  -4  -1  147.29   11.40
   0   4  -1  141.09   14.90
   0   4  -1   83.79   13.30
   0  -4   1  116.59   11.80
   0  -4   1   92.39   10.30
   0  -4  -1  113.09   10.50
   0  -4   1  114.29   11.10
   0   5   1    4.90    7.10
   0  -5  -1   -0.60    3.60
   0  -5  -1    2.20    2.10
   0  -5  -1    0.10    4.90
   0  -5   1   -3.60    3.30
   0  -5  -1    8.40    4.70
   0  -5   1    2.30    3.90
   0   5  -1    4.00    7.60
   0  -6  -1  189.68   16.00
   0  -6   1  112.29   13.80
   0  -6   1  137.79   15.00
   0   6  -1  143.79   19.20
   0   6   1  179.18   18.90
   0  -7  -1    6.80    6.70
   0   7  -1    3.30   12.10
   0  -7   1    2.10    5.70
   0  -7   1   -0.60    6.20
   0  -7  -1   -2.30    6.20
   0   7   1    0.50    9.30
   0   8  -1   55.49   17.40
   0  -8  -1   37.90    9.70
   0   8   1   42.00   15.10
   0  -8   1   28.50    8.20
   0  -8   1   42.30    9.30
   0  -8  -1   31.20    8.50
   0   9   1    4.90   15.20
   0  -9  -1   -7.00    7.50
   0  -9   1    4.20    9.10
   0  -9   1    2.30    8.30
   0  -9  -1    2.90    8.90
   0   9  -1   12.80   14.90
   0 -10  -1   79.49   12.90
   0  10  -1   69.79   23.60
   0  10   1   75.09   22.20
   0 -10   1   64.39   12.40
   0 -11  -1   -1.50   10.50
   0 -11   1    6.30   12.10
   1   0  -1    0.00    1.90
   1   0  -1    0.60    0.50
   1   0   1    1.20    1.00
   1   0  -1    0.50    1.10
  -1   0  -1    0.70    1.00
  -1   0   1   -1.30    1.90
  -1   0   1    0.60    0.40
   1   0   1    0.10    0.80
  -1   0  -1    1.30    1.20
   1   0   1   -0.20    1.30
  -1   0   1    0.70    1.00
  -1   0  -1    0.10    0.80
   1  -1  -1 2818.52  217.18
  -1   1  -1 2856.51  217.08
   1  -1  -1 2978.50  217.18
   1  -1  -1 2487.35  216.78
  -1  -1   1 2598.44  217.18
   1  -1  -1 2825.12  216.78
   1   1   1 2594.54  217.38
  -1  -1   1 2650.53  216.68
  -1   1  -1 2777.92  217.08
  -1   1  -1 2838.32  216.78
  -1   1   1 2776.12  217.18
  -1   1   1 2501.55  216.78
  -1   1   1 2867.41  216.78
   1  -1   1 2880.31  216.78
  -1  -1  -1 2646.54  217.48
   1   1  -1 2750.32  217.18
  -1   1   1 2953.60  216.98
   1   1  -1 2756.52  217.58
   1  -1   1 2730.33  216.98
  -1   1   1 2945.61  217.18
   1  -1   1 2537.15  217.08
   1  -2  -1  322.37   27.10
  -1   2  -1  321.57   27.20
  -1  -2   1  353.16   27.10
   1  -2  -1  341.27   27.20
   1  -2  -1  309.37   27.10
  -1  -2   1  363.76   28.80
   1   2   1  337.47   28.40
  -1   2  -1  322.57   27.50
   1  -2  -1  348.87   27.80
  -1  -2  -1  342.37   27.20
  -1   2   1  358.46   27.20
   1  -2   1  353.06   27.60
   1  -2   1  365.36   27.30
  -1   2   1  332.97   27.70
  -1  -2  -1  348.27   28.40
   1   2  -1  303.47   28.40
  -1   2   1  333.87   27.20
   1   2  -1  322.07   27.10
   1  -2   1  364.36   27.80
  -1   3  -1 3810.82  303.67
   1   3   1 3456.05  304.47
   1  -3  -1 3986.10  303.17
  -1   3  -1 4015.70  302.77
  -1  -3   1 4154.88  303.07
  -1   3  -1 3901.01  303.97
   1  -3  -1 3995.10  303.37
   1  -3  -1 3918.71  303.07
   1  -3  -1 3679.23  303.67
  -1  -3  -1 3969.00  303.17
  -1   3   1 4192.28  304.07
  -1  -3  -1 3876.01  305.17
   1   3  -1 3208.48  302.97
   1  -3   1 3646.44  303.47
   1  -3   1 3795.62  303.07
  -1   3   1 4042.90  303.17
  -1  -3  -1 3957.80  303.07
  -1   3   1 3752.12  306.17
   1  -3   1 3862.91  304.27
   1   3  -1 3620.74  304.77
  -1  -4   1  518.45   42.30
  -1   4  -1  471.45   42.60
  -1  -4   1  530.85   43.80
   1  -4  -1  522.55   43.30
   1  -4  -1  543.95   43.20
  -1  -4   1  535.25   42.10
  -1   4  -1  535.15   47.60
   1   4   1  539.85   44.70
   1  -4  -1  550.64   42.40
  -1  -4  -1  522.15   42.20
   1  -4   1  547.15   42.90
  -1   4   1  580.94   42.00
  -1  -4  -1  523.85   45.00
  -1   4   1  530.85   46.20
   1   4  -1  479.55   44.70
   1  -4   1  522.55   42.30
   1  -4   1  465.55   44.10
  -1  -4  -1  499.45   42.20
  -1  -5   1 1174.78   90.19
  -1  -5   1 1050.39   88.89
   1  -5  -1 1156.28   89.19
  -1  -5   1 1077.39   88.59
   1   5   1 1098.59   91.89
   1  -5  -1 1137.59   90.39
  -1   5  -1 1107.89   94.09
   1  -5  -1 1109.99   89.99
  -1  -5  -1 1143.59   89.09
   1  -5   1 1084.59   89.69
   1   5  -1 1060.09   91.99
  -1   5   1 1091.09   92.99
  -1  -5  -1 1153.38   91.19
   1  -5   1 1159.28   89.19
  -1  -5  -1 1135.69   88.99
  -1  -6   1  237.48   21.00
  -1   6  -1  214.68   26.90
  -1  -6   1  233.68   19.90
   1  -6  -1  224.68   21.40
  -1  -6   1  231.88   19.50
   1  -6  -1  225.28   21.10
   1   6   1  192.78   23.20
   1  -6  -1  232.28   19.90
  -1  -6  -1  256.17   22.10
  -1   6   1  230.08   25.50
  -1  -6  -1  218.18   20.40
   1  -6   1  206.38   20.50
   1  -6   1  230.88   20.10
  -1  -6  -1  221.48   19.70
   1   6  -1  211.68   23.90
  -1  -7   1  760.52   66.39
  -1   7  -1  792.82   72.19
   1  -7  -1  935.11   67.39
  -1  -7   1  882.71   65.79
   1   7   1  777.72   70.39
   1  -7  -1  805.52   65.69
   1  -7   1  824.22   65.79
  -1  -7  -1  788.12   67.19
  -1   7   1  826.22   71.39
  -1  -7  -1  804.82   65.59
   1   7  -1  718.23   69.99
   1  -7   1  791.32   66.49
  -1  -8   1    5.20    7.60
  -1   8  -1   13.30   15.50
  -1  -8   1    6.40    7.50
   1  -8  -1   -0.70    7.70
   1   8   1   16.60   14.00
   1  -8  -1    8.50    8.30
  -1   8   1   10.80   14.10
  -1  -8  -1    9.70    7.80
   1   8  -1   11.30   13.00
   1  -8   1    3.60    7.20
   1  -8   1    6.10    7.90
  -1  -8  -1    6.70    8.50
   1  -9  -1  332.47   28.00
  -1  -9   1  286.47   27.90
  -1  -9   1  299.57   27.30
   1   9   1  264.47   35.40
   1  -9  -1  305.47   28.90
  -1   9  -1  279.07   36.80
   1   9  -1  334.47   39.00
   1  -9   1  280.37   28.30
  -1   9   1  267.47   35.20
  -1  -9  -1  303.47   26.70
   1  -9   1  304.47   27.00
  -1  -9  -1  267.87   28.00
   1 -10  -1    1.90    9.70
  -1 -10   1    9.20   10.70
  -1  10  -1    3.90   19.20
   1  10   1    6.20   19.50
   1 -10  -1    1.90   11.70
  -1  10   1    3.90   18.30
   1  10  -1    5.00   17.00
  -1 -10  -1    2.50   10.40
   1 -10   1   -2.20    9.20
   2   0  -1    9.20    1.70
   2   0   1    5.70    3.30
  -2   0   1    2.60    1.10
  -2   0   1    9.30    4.00
  -2   0   1    2.90    2.10
  -2   0  -1    9.10    1.70
   2   0   1    4.80    2.10
  -2   0  -1    3.60    2.60
   2   0  -1    5.90    2.60
  -2   0  -1    6.90    2.40
   2   0  -1   23.00    5.00
  -2   1  -1  272.17   22.40
  -2   1  -1  262.87   22.60
  -2  -1   1  306.67   23.30
   2  -1  -1  249.68   21.80
   2  -1  -1  281.87   22.70
   2  -1  -1  294.57   22.90
   2   1   1  239.48   22.20
  -2   1  -1  280.97   21.90
   2  -1  -1  276.37   22.20
  -2   1  -1  255.97   22.30
  -2  -1  -1  290.07   22.60
  -2   1   1  295.17   22.30
   2  -1   1  286.27   22.50
  -2   1   1  251.67   21.80
   2   1  -1  256.77   23.20
   2  -1   1  276.77   22.40
   2  -1   1  261.87   21.90
  -2   1   1  261.27   22.50
   2  -1   1  268.57   22.60
   2   1  -1  292.07   22.80
  -2  -1  -1  269.97   23.40
   2  -2  -1   72.69    5.70
  -2  -2   1   62.09    7.10
  -2  -2   1   68.59    8.00
  -2   2  -1   51.79    6.30
   2  -2  -1   58.59    5.80
  -2   2  -1   46.50    5.50
  -2  -2   1   51.69    5.20
  -2   2  -1   64.59    6.40
   2  -2   1   48.00    6.00
  -2   2   1   61.79    6.00
  -2   2   1   78.49    5.80
   2  -2   1   53.09    6.80
   2  -2   1   49.50    5.60
   2  -2   1   56.39    6.60
  -2   2   1   61.99    6.70
  -2  -3   1   31.80    3.80
   2  -3  -1   28.00    5.30
   2   3   1   29.50    6.80
   2  -3  -1   30.10    4.20
  -2   3  -1   15.00    6.70
  -2  -3   1   23.60    5.50
  -2   3  -1   23.00    3.30
   2  -3  -1   28.60    3.90
   2  -3   1   25.90    3.90
  -2   3   1   20.60    5.90
   2  -3   1   18.80    4.50
  -2  -3  -1   27.40    3.80
   2   3  -1   30.10    7.10
  -2   3   1   24.50    3.60
   2  -3   1   29.00    4.40
   2  -4  -1   95.19    9.70
   2  -4  -1   79.49    7.60
  -2  -4   1   64.39    7.60
   2  -4  -1   68.99    7.70
  -2   4  -1   67.19    7.00
  -2   4   1   90.69    9.60
  -2  -4  -1   94.99    7.90
  -2  -4  -1   62.59   15.10
   2  -4   1   56.29    7.60
   2  -4   1   60.79    8.40
   2  -4   1   67.19    8.00
  -2   4   1   93.89    7.90
   2   4  -1   92.69   11.90
   2  -5  -1   31.40    6.90
   2   5   1   22.80    8.60
  -2   5  -1   -0.70   12.50
  -2  -5   1   17.50    4.40
  -2  -5   1   29.80    5.20
  -2   5  -1   11.00    3.00
   2  -5  -1   30.10    4.80
   2  -5  -1   23.90    5.00
  -2   5  -1   35.90    7.00
  -2  -5   1   11.30    8.50
   2  -5   1   15.60    4.80
  -2  -5  -1   25.50    5.30
   2  -5   1   22.20    5.90
   2   5  -1   21.90    9.60
  -2  -5  -1   20.30    4.70
  -2   5   1   26.90    5.10
  -2   5   1    9.90   12.30
  -2  -5  -1  -10.40    8.50
   2  -6  -1   90.49   10.50
  -2  -6   1   58.09    8.50
  -2  -6   1   61.99   11.40
  -2   6  -1   59.59   17.50
  -2  -6   1   73.89    8.50
   2   6   1   73.79   14.50
   2  -6  -1   82.19    8.40
   2  -6  -1   94.59    9.70
   2  -6   1   62.49    9.40
  -2   6   1   97.89   18.20
  -2  -6  -1  102.69    9.40
   2   6  -1   59.99   13.50
   2  -6   1   49.90    8.50
  -2   6   1   58.19    6.00
  -2  -6  -1   78.29   13.80
   2   7   1    7.60   10.70
  -2  -7   1   12.80    6.60
   2  -7  -1   -2.40    6.00
  -2   7  -1   11.50   14.20
   2  -7  -1   10.40    7.50
  -2  -7   1    7.90    5.20
  -2  -7   1   14.20    7.80
  -2  -7  -1    9.60    5.90
   2  -7   1    8.00    7.20
  -2  -7  -1    5.50    5.80
   2  -7   1   10.80    6.50
  -2   7   1   10.60   12.00
   2   7  -1   21.20   12.00
  -2  -7  -1   10.30    9.30
  -2   8  -1  108.59   24.50
  -2  -8   1  105.19   14.40
   2   8   1   98.19   20.80
   2  -8  -1  120.99   15.00
   2  -8   1  122.49   13.70
   2   8  -1   94.49   19.90
  -2  -8  -1  119.89   16.40
  -2  -8  -1  159.98   14.50
  -2   8   1   98.79   22.30
  -2  -9   1    9.80    8.70
  -2   9  -1    3.90   18.60
   2   9   1   13.50   17.10
   2  -9  -1    6.40    9.90
   2  -9  -1    9.50    9.60
  -2  -9  -1    1.80    7.60
   2   9  -1   24.70   18.40
  -2  -9  -1    6.60   10.00
   2  -9   1    3.50    8.90
  -2   9   1    9.30   17.20
   2  -9   1   12.00    9.70
  -2 -10   1   15.40    9.10
   2 -10  -1   15.20   11.60
   2  10   1   16.70   20.30
  -2  10  -1   29.10   21.90
   2 -10  -1   16.50   11.00
   2 -10   1   25.70   12.20
  -2  10   1   21.20   19.60
  -2 -10  -1    4.70   10.20
   2  10  -1   34.60   22.00
  -3   0  -1   -2.40    3.00
  -3   0  -1    2.00    1.80
   3   0  -1   -3.30    4.30
   3   0  -1    2.20    2.50
   3   0   1   -3.20    3.10
  -3   0   1    0.60    2.70
  -3   0   1    1.40    3.00
  -3   0   1    1.50    1.40
  -3   0  -1    4.40    3.50
   3   0  -1    1.60    3.00
   3   0   1    3.50    4.40
  -3   0   1    4.80    4.70
  -3  -1   1 3696.13  309.37
  -3   1  -1 4073.69  307.77
  -3   1  -1 3701.83  307.47
  -3  -1   1 3799.52  307.77
   3   1   1 3880.51  307.57
  -3  -1   1 3923.21  307.37
  -3   1  -1 3931.21  307.07
   3  -1  -1 3951.00  306.97
   3  -1  -1 3809.52  307.97
  -3   1   1 3833.02  307.57
   3  -1   1 3878.31  307.97
   3  -1   1 4456.95  308.67
  -3  -1  -1 3854.91  309.07
  -3  -1  -1 3786.52  307.77
  -3   1   1 3916.41  306.97
   3   1  -1 4006.00  308.17
   3  -1   1 3873.81  307.57
   3  -1   1 3759.22  307.07
  -3   1   1 3849.61  307.87
   3  -2  -1   97.99    9.60
   3  -2  -1   91.99    8.50
  -3  -2   1   84.59    9.70
   3   2   1   84.49   10.80
   3  -2  -1   75.29    7.90
  -3   2  -1   89.09    8.90
   3   2  -1   79.09   10.70
   3  -2   1   84.49    8.00
   3  -2   1   87.59    9.10
   3  -2   1   88.19    8.60
  -3  -2  -1   93.19    9.70
   3  -2   1   81.29    9.20
  -3   2   1   92.49    9.50
  -3   2   1   92.89    8.60
  -3  -3   1  596.74   49.90
   3   3   1  656.23   52.79
   3  -3  -1  680.43   50.29
   3  -3  -1  628.34   51.29
  -3  -3   1  571.04   51.39
   3  -3  -1  663.93   50.39
  -3   3  -1  589.04   50.89
  -3  -3  -1  663.23   51.49
   3  -3   1  625.94   50.49
   3   3  -1  570.94   52.59
  -3   3   1  615.24   50.59
  -3   3   1  640.44   50.49
   3  -3   1  644.04   50.19
   3  -3   1  601.74   51.19
  -3  -4   1  154.48   15.30
   3   4   1  157.28   17.90
  -3   4  -1  131.69   18.30
   3  -4  -1  141.59   14.60
   3  -4  -1  142.19   13.10
   3  -4  -1  153.18   13.50
  -3  -4   1  156.08   13.10
  -3   4  -1  150.58   13.10
   3  -4   1  158.08   15.10
   3   4  -1  153.68   17.40
  -3  -4  -1  149.88   15.10
  -3   4   1  101.39   15.70
  -3   4   1  149.79   13.20
   3  -4   1  152.98   13.50
  -3  -4  -1  145.39   13.10
  -3  -5   1 2534.45  185.08
   3  -5  -1 2238.88  182.58
   3   5   1 2071.39  185.98
  -3  -5   1 2291.47  182.58
  -3   5  -1 2241.98  182.48
   3  -5  -1 2294.17  184.08
   3  -5  -1 2301.67  182.88
   3   5  -1 2328.97  186.58
  -3   5   1 2364.06  182.88
  -3  -5  -1 2333.47  183.38
   3  -5   1 2308.27  183.98
   3  -5   1 2370.56  182.98
  -3  -5  -1 2301.37  182.68
  -3  -6   1   31.90    6.10
  -3   6  -1   38.90    9.30
   3  -6  -1   25.20    8.20
  -3  -6   1    6.30   11.50
   3   6   1   22.90   11.20
  -3  -6   1   19.80    6.10
  -3   6  -1  -13.10   16.20
  -3  -6   1   31.30    9.90
   3  -6  -1   19.70    6.80
   3  -6   1   25.30    6.90
  -3   6   1   33.30    6.90
  -3  -6  -1  -21.50   11.80
  -3   6   1   -0.70   14.70
  -3  -6  -1   19.60    6.40
  -3  -6  -1   26.10    6.30
   3  -6   1   21.30    7.20
   3   6  -1   14.10   11.70
   3  -7  -1  297.97   26.10
  -3  -7   1  286.57   30.10
   3  -7  -1  294.57   27.80
  -3  -7   1  304.07   30.10
  -3  -7   1  317.97   25.60
  -3  -7   1  289.57   25.70
   3   7   1  286.47   31.60
  -3   7  -1  277.97   40.00
   3  -7   1  286.17   25.70
  -3  -7  -1  288.87   26.00
   3   7  -1  315.57   34.00
  -3  -7  -1  294.57   32.30
  -3   7   1  282.17   36.00
   3  -7   1  254.47   26.70
  -3  -7  -1  281.57   25.50
  -3   8  -1   39.30   20.50
   3  -8  -1   44.70   12.00
  -3  -8   1   32.10   14.20
  -3  -8   1   47.60   12.10
   3  -8  -1   32.40   10.20
   3   8   1   41.50   18.30
  -3  -8   1   34.70    9.10
  -3  -8  -1   42.30   14.10
  -3  -8  -1   37.90    9.70
   3  -8   1   40.00   11.90
  -3   8   1   38.30   19.60
   3   8  -1   47.20   17.10
   3  -8   1   40.30   10.60
   3  -9  -1  194.08   23.30
   3  -9  -1  206.38   21.50
   3   9   1  212.58   33.20
  -3  -9   1  203.48   27.80
  -3   9  -1  241.28   37.90
  -3  -9   1  191.28   20.30
   3  -9   1  185.48   22.70
  -3  -9  -1  193.78   20.50
  -3  -9  -1  193.88   23.60
   3  -9   1  188.68   21.30
  -3   9   1  211.68   34.60
   3   9  -1  191.48   30.20
  -3 -10   1   -3.10    9.60
  -3  10  -1    1.90   21.70
  -3 -10   1    9.40   17.30
   3 -10  -1   -1.10   12.40
   3 -10  -1    3.20   11.80
   3  10   1    0.40   20.70
  -3  10   1    1.30   19.70
  -3 -10  -1   11.30   11.20
   3 -10   1    3.00    9.80
   3  10  -1    5.00   21.50
  -3 -10  -1   -5.00   16.10
   4   0   1   73.69   11.10
  -4   0  -1   73.39    9.60
   4   0   1   91.59   10.00
   4   1   1  146.79   14.40
  -4  -1   1  161.08   13.30
   4  -1  -1  149.69   15.00
  -4   1  -1  164.48   14.50
   4  -1  -1  169.98   13.50
  -4   1  -1  150.38   14.50
  -4  -1  -1  143.79   14.70
  -4  -1  -1  166.18   13.90
   4  -1   1  152.98   13.70
   4  -1   1  179.38   18.80
  -4   1   1  182.48   15.60
   4  -1   1  151.08   15.00
  -4   1   1  152.08   14.80
  -4   1   1  139.79   13.10
  -4  -2   1   13.90    6.70
   4  -2  -1   37.00    6.50
  -4   2  -1   39.00    6.30
  -4   2  -1   26.50    5.40
   4  -2  -1   28.20    4.20
  -4  -2  -1   29.60    7.70
  -4   2   1   23.60    5.50
  -4  -2  -1   44.40    6.90
   4  -2   1   28.20    4.50
  -4   2   1   19.50    5.10
   4  -2   1   34.70    6.80
   4  -3  -1  101.49    9.80
  -4  -3   1   96.39   12.10
   4  -3  -1  109.89   11.80
  -4   3  -1   90.39   11.00
   4   3   1  109.89   14.10
   4  -3   1   97.59    9.60
   4  -3   1  100.69   11.50
  -4   3   1   88.89   10.50
   4   3  -1  107.69   14.00
  -4  -3  -1  104.49   12.30
  -4  -4   1   90.69    8.70
   4   4   1   98.99   14.40
  -4   4  -1   73.79   11.60
  -4   4   1   79.29   11.20
   4  -4   1   80.29   11.00
   4  -4   1   57.19    8.90
   4   4  -1   87.79   14.20
  -4  -4  -1  108.39    9.20
  -4  -5   1   39.20   10.30
  -4  -5   1   45.70    6.10
   4   5   1   25.80   10.80
   4  -5  -1   33.90    9.30
   4  -5  -1   35.40    6.60
   4  -5   1   33.30    6.50
   4   5  -1   34.00   11.60
  -4  -5  -1   40.40    6.50
   4  -5   1   42.30    9.00
  -4  -5  -1   43.00   10.00
  -4   5   1    2.60   10.20
  -4  -6   1   -4.40   17.50
  -4  -6   1   41.30    7.50
   4  -6  -1   51.29    8.20
  -4  -6   1   38.70   11.10
  -4   6  -1   36.30   13.30
   4   6   1   57.79   13.90
  -4  -6  -1   28.60   21.40
  -4  -6  -1   49.40    8.70
  -4  -6  -1   88.59    8.70
   4   6  -1   48.60   14.10
   4  -6   1   52.99   10.00
  -4  -6  -1   55.59   11.70
  -4   6   1   72.89   12.80
   4  -6   1   66.99    9.20
   4  -7  -1   22.20   10.20
   4  -7  -1   30.70    8.50
  -4   7  -1   39.20   10.80
  -4  -7   1   22.60    7.40
  -4   7  -1  -17.00   24.40
  -4  -7   1   19.00   15.70
  -4  -7   1   43.40   13.90
   4   7   1   23.30   13.90
  -4  -7   1   13.50    7.50
  -4  -7  -1   37.10    7.90
   4  -7   1   22.00   10.00
   4  -7   1   18.30    7.50
  -4  -7  -1  -12.70   16.30
  -4  -7  -1   21.10   11.40
   4   7  -1   24.70   14.30
  -4  -7  -1   33.10    8.30
  -4   7   1   22.60   23.40
  -4  -8   1   33.30   14.40
  -4   8  -1   19.80   25.30
   4  -8  -1   43.60   11.60
   4   8   1   27.10   15.90
  -4  -8   1   43.20    9.10
  -4  -8   1   23.60   14.60
   4  -8  -1   32.10    9.10
  -4   8   1   47.00   23.50
   4  -8   1   35.50    9.40
   4   8  -1   42.70   17.60
  -4  -8  -1   49.60   15.00
  -4  -8  -1   30.70   17.80
   4  -8   1   41.20   12.40
  -4  -8  -1   43.90    9.90
   4  -9  -1    2.40    8.80
  -4  -9   1   15.20   17.40
  -4   9  -1   -4.30   23.70
   4   9   1   -0.10   15.90
  -4  -9   1    2.00    8.40
   4  -9  -1    2.40   11.10
   4  -9   1    4.20   11.80
   4   9  -1    3.10   17.30
  -4   9   1    4.60   20.60
  -4  -9  -1    7.90   16.50
   4  -9   1    6.60   10.00
  -4  -9  -1    6.70    8.60
  -4 -10   1   21.70   17.60
   4  10   1   34.30   20.10
   4 -10  -1   27.50   12.90
  -4 -10   1   21.20   11.10
  -4  10  -1   20.90   27.70
   4 -10  -1   37.60   16.70
  -4  10   1   27.80   24.90
  -4 -10  -1   34.40   12.60
   4  10  -1   19.20   20.30
   4 -10   1   23.90   17.50
  -4 -10  -1   25.30   20.20
   4 -10   1   31.10   11.50
  -5   0   1    7.00    6.10
  -5   0  -1    4.40    5.60
  -5   0   1    0.90    2.30
  -5   0  -1    8.80    5.50
  -5   0   1   11.30    7.10
   5  -1  -1  902.61   69.09
  -5  -1   1  807.32   68.49
  -5   1  -1  840.82   69.79
  -5  -1   1  854.71   70.19
   5  -1  -1  896.21   70.59
  -5   1  -1  881.51   69.99
  -5  -1  -1  839.22   70.09
   5  -1   1  827.22   69.29
  -5   1   1  883.01   70.49
  -5   1   1  877.51   69.99
   5  -2  -1    3.90    5.60
  -5  -2   1    9.90    4.20
  -5  -2   1    3.40    9.70
  -5   2  -1   12.10    5.20
   5  -2  -1    5.70    3.80
  -5   2  -1   11.30    6.00
  -5  -2  -1   -9.30    8.10
   5  -2   1    8.20    6.10
   5  -2   1    5.40    4.10
  -5   2   1    4.60    5.50
  -5   2   1    7.90    5.50
  -5  -2  -1    7.20    6.30
   5  -3  -1 2176.68  170.38
  -5   3  -1 2069.49  169.48
   5  -3  -1 2077.89  168.48
  -5  -3   1 2175.48  172.18
   5  -3   1 2059.79  168.58
   5  -3   1 2171.48  170.28
  -5   3   1 2114.39  169.38
  -5  -3  -1 2096.29  169.88
  -5  -3  -1 2200.88  171.78
  -5  -4   1   41.60    6.00
   5  -4  -1   39.40    6.40
  -5  -4   1   29.90    9.60
  -5   4  -1   40.60    9.10
   5  -4  -1   43.10    9.50
   5   4   1   32.40   11.40
   5   4  -1   42.70   12.00
   5  -4   1   42.50    9.00
   5  -4   1   37.40    6.60
  -5   4   1   34.20    8.40
  -5  -4  -1   45.40   10.80
  -5  -5   1  101.99   11.00
   5   5   1  103.19   18.50
  -5  -5   1  101.89   15.90
  -5   5  -1  121.39   18.60
   5  -5  -1  103.99   14.50
   5  -5  -1  104.79   11.90
   5  -5   1  107.69   12.20
  -5   5   1  128.89   17.80
   5  -5   1  109.79   14.30
  -5  -5  -1   98.49   11.40
  -5  -5  -1  108.99   16.50
   5   5  -1  110.19   18.80
   5  -6  -1   15.30    6.60
  -5   6  -1   11.80   11.10
   5  -6  -1    9.50    8.60
  -5  -6   1    7.60    5.80
  -5  -6   1   20.90   11.90
   5   6   1    5.50   12.30
   5  -6   1   11.50    7.50
  -5  -6  -1    8.50   10.50
  -5  -6  -1   19.10    6.60
   5   6  -1   11.30   12.90
  -5  -6  -1    8.50    7.70
  -5   6   1   23.30   10.10
   5  -6   1   14.20    9.80
   5  -7  -1  583.04   50.79
   5  -7  -1  562.04   48.00
  -5  -7   1  583.94   49.20
   5   7   1  527.55   54.29
  -5  -7   1  600.14   53.59
  -5  -7   1  543.75   47.60
  -5  -7  -1  559.24   52.99
   5  -7   1  517.05   49.60
  -5  -7  -1  603.54   49.50
   5   7  -1  584.14   55.29
  -5  -7  -1  633.14   47.60
   5  -7   1  558.94   48.30
  -5   8  -1  -29.20   29.00
   5  -8  -1    4.30    8.80
  -5  -8   1   -3.00   16.40
   5  -8  -1   -8.70   11.10
   5   8   1   -6.90   17.40
  -5  -8   1   -1.40    8.20
  -5  -8   1    3.40   15.20
   5  -8   1   -1.40    8.10
   5   8  -1    9.00   16.40
  -5   8   1   -3.60   26.10
  -5  -8  -1  -12.70   18.40
  -5  -8  -1   -4.00   14.80
  -5  -8  -1    1.00    8.10
   5  -8   1    4.90    9.70
  -5  -9   1  162.28   18.50
  -5   9  -1  115.79   38.70
   5  -9  -1  146.69   22.90
   5   9   1  151.98   31.80
   5  -9  -1  164.38   20.10
  -5  -9   1  146.99   27.90
   5  -9   1  163.08   20.40
  -5  -9  -1  148.59   18.90
  -5  -9  -1  155.08   28.20
   5   9  -1  161.88   32.90
   5  -9   1  151.48   23.50
  -5   9   1  153.08   35.20
  -5  -9  -1  189.48   23.70
  -6   0   1  117.69   16.50
  -6   0  -1  117.09   15.10
  -6   0  -1  156.38   15.90
  -6  -1   1   88.69   12.40
  -6  -1   1   76.49   17.10
  -6   1  -1   99.79   12.10
  -6   1  -1   88.09   12.00
   6  -1  -1   94.29   11.60
   6  -1  -1   95.79   12.70
  -6   1   1  107.69   12.90
  -6   1   1   85.49   11.90
   6  -1   1  105.29   12.50
  -6  -1  -1   84.29   12.80
  -6  -1  -1   85.29   15.60
   6  -2  -1   24.00    5.90
  -6  -2   1   29.80    8.90
  -6   2  -1   34.80    7.50
  -6   2  -1   38.40    9.10
  -6  -2   1    2.90   10.60
   6  -2  -1   36.60    8.70
  -6   2   1   35.10    8.20
  -6  -2  -1    4.30    9.40
  -6   2   1   33.00    7.50
   6  -2   1   20.20    7.90
   6  -2   1   27.30    6.20
  -6  -2  -1   23.30    8.40
  -6  -3   1   74.89   17.80
  -6  -3   1   60.59   12.20
   6  -3  -1   87.09   13.00
   6  -3  -1   83.19    9.60
  -6   3  -1   80.99   12.30
   6  -3   1   75.99    9.80
   6  -3   1   76.09   12.60
  -6   3   1   81.79   12.00
  -6  -3  -1   59.89   16.50
  -6   3   1   81.29   11.80
  -6  -3  -1   85.89   13.50
  -6   4  -1   35.00    9.80
   6  -4  -1   45.10   10.40
   6  -4  -1   39.10    7.40
  -6  -4   1   38.00    6.20
  -6  -4   1   24.10   13.00
  -6  -4  -1   20.90   11.50
  -6  -4  -1   57.89   11.70
  -6   4   1   44.20    9.60
   6  -4   1   38.40    9.70
   6  -4   1   41.20    7.60
  -6  -5   1   32.80    6.60
   6  -5  -1   33.80    8.10
  -6  -5   1   24.70   11.80
   6  -5  -1   33.80   10.60
  -6   5  -1   33.80   11.90
   6  -5   1   27.70    8.10
  -6  -5  -1   37.40    7.10
   6   5  -1   39.70   14.80
  -6   5   1   32.20   11.30
   6  -5   1   29.90   10.30
  -6  -5  -1   28.80   12.70
  -6  -5  -1   29.80   11.60
  -6  -6   1   51.39   15.10
  -6   6  -1   46.90   18.10
   6  -6  -1   58.79   10.10
   6   6   1   61.09   18.90
   6  -6  -1   60.09   12.80
  -6  -6   1   61.59    8.80
   6   6  -1   58.29   17.90
  -6   6   1   49.50   17.60
   6  -6   1   43.50    9.60
  -6  -6  -1   53.49   15.30
   6  -6   1   39.30   11.40
  -6  -6  -1   50.39   12.40
  -6  -6  -1   55.49    9.10
   6  -7  -1    6.60   12.00
  -6  -7   1    7.70    7.40
  -6  -7   1   11.00   15.00
   6  -7  -1    0.90    7.90
  -6  -7   1  -30.20   20.40
   6   7   1   10.50   16.00
  -6  -7  -1  -13.20   23.00
  -6  -7  -1    1.40   12.20
  -6  -7  -1    4.10   13.90
  -6  -7  -1   -3.90    9.10
   6   7  -1   12.90   18.50
   6  -7   1    5.80    8.80
   6  -7   1    5.30    9.90
  -6  -7  -1   10.10    8.20
  -6  -8   1   26.40    9.60
   6  -8  -1   25.00   10.80
   6  -8  -1   12.60   13.40
   6   8   1   15.30   18.20
  -6  -8   1   15.00   15.70
  -6  -8  -1   15.30   17.20
   6  -8   1   12.50    9.20
   6  -8   1    7.40   10.80
  -6  -8  -1   15.60   19.60
   6   8  -1   15.30   18.30
  -6  -8  -1   14.70    9.70
  -6  -8  -1   18.40   14.40
   6   9   1   12.00   19.90
   6  -9  -1   13.30   11.80
  -6  -9   1    2.30   19.30
  -6   9  -1    5.80   36.10
   6  -9  -1   -3.10   13.40
  -6  -9   1    5.00   16.70
  -6   9   1    8.00   30.80
  -6  -9  -1   11.20   12.50
  -6  -9  -1   33.20   19.90
   6  -9   1   10.10   11.00
   6   9  -1   14.40   20.00
  -6  -9  -1    6.30   15.30
   6  -9   1    2.10   13.20
  -7   0  -1   13.20    7.60
  -7   0  -1    8.30    9.80
  -7   0   1   -3.50    9.30
  -7   0   1   11.90    9.20
  -7  -1   1  635.54   54.79
  -7  -1   1  686.53   59.69
   7  -1  -1  615.44   54.89
  -7   1  -1  592.74   54.09
  -7   1  -1  645.14   54.79
  -7   1   1  671.03   55.09
  -7  -1  -1  643.84   54.79
  -7  -1  -1  690.43   57.39
  -7   1   1  627.04   54.69
   7  -1   1  673.13   55.29
  -7   2  -1   90.79   13.60
   7  -2  -1  100.39   12.30
   7  -2  -1   87.59   14.60
  -7   2  -1   90.19   12.80
  -7  -2   1  102.99   14.90
  -7   2   1   81.39   13.70
  -7   2   1   89.29   13.20
   7  -2   1   97.19   12.40
  -7  -2  -1  101.79   15.00
  -7  -2  -1   59.39   18.10
  -7  -3   1  224.78   22.30
   7  -3  -1  191.18   17.70
   7  -3  -1  188.08   21.20
  -7   3  -1  187.78   20.20
  -7   3   1  187.88   19.90
   7  -3   1  167.68   17.70
  -7  -3  -1  183.38   21.40
  -7   3   1  166.48   20.30
   7  -3   1  191.18   22.00
   7  -4  -1   58.09    8.90
  -7  -4   1   30.40   17.40
   7  -4  -1   43.80   12.20
  -7   4  -1   38.00   11.20
  -7  -4   1   42.50   14.20
  -7  -4  -1   26.60   16.10
  -7  -4  -1   39.30   13.10
   7  -4   1   44.10   12.20
   7  -4   1   39.20    8.40
  -7   4   1   49.10   11.40
  -7  -5   1  538.45   46.80
  -7  -5   1  458.15   50.59
   7  -5  -1  485.95   42.70
  -7   5  -1  479.85   45.90
  -7  -5   1  523.15   41.90
   7  -5  -1  498.95   45.80
  -7  -5  -1  539.25   46.60
  -7   5   1  494.85   45.60
   7  -5   1  543.65   46.20
  -7  -5  -1  542.25   42.30
  -7  -5  -1  488.25   50.19
   7  -5   1  482.75   42.80
  -7  -6   1   47.90   14.90
   7  -6  -1   66.19   11.20
   7  -6  -1   36.00   13.30
  -7  -6   1   49.00   19.00
  -7   6  -1   64.69   19.60
  -7  -6  -1   63.89   16.20
   7  -6   1   57.89   15.40
  -7  -6  -1   57.79   10.00
   7  -6   1   48.50   10.30
  -7  -6  -1   49.90   18.20
  -7  -7   1   76.99   20.50
  -7  -7   1   63.49   21.30
   7  -7  -1   64.29   16.70
   7  -7  -1   75.59   12.80
   7  -7   1   76.59   17.30
  -7  -7  -1   65.19   17.40
   7  -7   1   65.49   12.20
  -7  -7  -1   40.10   14.60
  -7  -7  -1   72.19   20.90
   7  -8  -1   -1.20   13.70
   7  -8  -1   11.00   10.40
  -7  -8   1    4.80   16.70
  -7  -8   1    2.90   19.10
  -7  -8  -1    0.30   15.70
   7  -8   1   17.60    9.70
   7  -8   1    5.50   13.60
   7   8  -1    7.70   19.70
  -7  -8  -1   12.30   18.80
  -8   0  -1    8.00    8.40
  -8   0  -1   13.40   10.40
  -8   0   1   16.40   11.70
  -8   0   1   17.10   10.10
  -8   1  -1   49.30   10.40
  -8  -1   1   42.40   15.00
  -8   1  -1   30.80   11.40
  -8  -1   1   36.00   12.60
  -8  -1  -1   49.80   13.00
  -8   1   1   34.50   12.80
  -8   1   1   54.89   11.50
  -8  -1  -1   46.50   13.00
  -8   2  -1   58.99   12.00
  -8  -2   1   67.59   14.10
  -8   2  -1   66.99   13.10
  -8  -2   1   45.90   18.90
   8  -2  -1   46.70   11.70
  -8   2   1   73.99   13.90
   8  -2   1   54.49   12.40
  -8  -2  -1   64.99   17.40
  -8  -2  -1  118.59   16.80
  -8   2   1   57.09   11.90
   8  -3  -1   25.30   11.60
   8  -3  -1   31.60    8.70
  -8  -3   1   22.30   14.00
  -8   3  -1   11.40   10.90
  -8  -3   1   -2.60   14.60
  -8  -3  -1   20.50   12.30
  -8  -3  -1   13.70   14.80
  -8   3   1   20.60   11.00
   8  -3   1   33.20    9.30
  -8  -4   1   41.50   15.00
  -8   4  -1   29.10   12.10
  -8  -4   1    7.50   14.70
   8  -4  -1   42.90   14.00
   8  -4  -1   29.70    8.80
  -8  -4  -1   29.70   13.00
  -8   4   1   16.40   11.40
   8  -4   1   31.50   13.80
  -8  -4  -1   19.30   14.50
   8  -4   1   32.60    9.20
  -8  -5   1    1.00   15.00
   8  -5  -1   14.10   13.60
   8  -5  -1    6.80    7.90
  -8  -5   1   14.80   18.70
  -8   5  -1   21.90   13.30
  -8  -5  -1    9.50   17.40
   8  -5   1    9.80   12.00
  -8   5   1   10.60   12.30
  -8  -5  -1    5.10   12.50
   8  -5   1   11.20    8.80
  -8  -6   1   14.20   20.20
  -8  -6   1   16.30   14.50
   8  -6  -1    8.20    8.90
   8  -6  -1    7.40   12.80
  -8  -6  -1    9.20   17.80
  -8  -6  -1   18.00   16.80
   8  -6   1    2.40   12.00
   8  -6   1   16.60    9.20
  -8  -7   1   11.60   17.90
  -8  -7   1   24.40   21.00
   8  -7  -1    9.00    9.70
   8  -7  -1    7.70   13.50
   8  -7   1   14.70   13.60
   8  -7   1   16.80   10.50
  -8  -7  -1    8.60   18.80
  -8  -7  -1  -32.20   15.00
  -8  -7  -1   -7.70   17.00
  -9   0  -1   11.60   13.90
  -9   0  -1    8.50    9.70
  -9   0   1    1.20   13.70
  -9   0   1    3.00   11.10
  -9   1  -1  197.48   22.40
  -9  -1   1  221.78   28.00
  -9  -1   1  226.48   26.50
  -9   1  -1  212.58   25.70
  -9  -1  -1  197.28   26.50
  -9  -1  -1  210.28   25.20
  -9   1   1  205.68   25.00
  -9   1   1  207.28   23.80
  -9  -2   1   27.30   16.90
  -9   2  -1   26.00   11.00
  -9  -2   1   16.30   15.60
   9  -2  -1    7.50   11.70
  -9   2  -1   34.00   14.60
  -9  -2  -1   29.40   17.30
  -9   2   1   20.30   13.60
  -9   2   1   28.90   12.00
  -9  -2  -1   28.80   15.30
   9  -2   1   25.60   13.20
  -9   3  -1  176.48   22.90
  -9  -3   1  100.19   27.40
  -9  -3   1  156.18   23.30
   9  -3  -1  165.68   20.10
  -9   3   1  134.59   21.40
  -9  -3  -1  161.78   24.40
   9  -3   1  169.88   20.60
   9  -4  -1   74.19   13.50
  -9   4  -1   79.59   17.40
  -9  -4   1   91.09   21.30
  -9  -4   1   37.20   20.20
   9  -4   1   84.19   14.30
  -9   4   1   87.69   17.40
  -9  -4  -1   91.69   20.80
  -9  -5   1   72.29   21.20
  -9   5  -1  153.68   22.50
   9  -5  -1  121.59   21.20
  -9  -5   1  137.39   27.00
   9  -5  -1  116.69   16.20
  -9  -5  -1  129.99   24.60
   9  -5   1  103.29   16.30
  -9  -6   1   25.30   19.20
   9  -6  -1   19.00   15.00
   9  -6  -1   24.30   10.60
   9  -6   1    9.80   14.60
  -9  -6  -1    9.10   18.30
   9  -6   1   19.30   10.80
 -10   0  -1   75.09   19.10
 -10   0   1   73.49   19.40
 -10   1  -1   -6.00   15.90
 -10  -1   1    6.30   14.70
 -10  -1  -1   24.30   16.90
 -10   1   1   10.60   15.90
 -10   2  -1   14.20   15.60
 -10  -2   1   15.80   15.50
 -10   2   1    7.60   14.90
 -10  -2  -1    8.30   14.80
 -10  -3   1    0.20   18.00
 -10   3  -1   -5.90   14.10
 -10   3   1   22.00   15.40
 -10  -3  -1   -8.00   17.50
 -10   4  -1   28.40   16.30
 -10  -4   1   28.10   17.50
 -10  -4  -1   21.30   16.50
 -10   4   1   14.80   15.00
 -11   0  -1    5.30   16.30
 -11   0   1    0.00   18.30
 -11  -1   1   70.79   20.00
 -11   1  -1   57.59   20.50
 -11   1   1   70.59   22.70
 -11  -1  -1   81.99   26.70
   0   0   2 1611.44  121.49
   0   0  -2 1458.45  121.39
   0  -1  -2    1.80    1.30
   0   1  -2    1.80    1.50
   0  -1   2   -0.20    0.70
   0   1   2    0.40    1.00
   0   1  -2    0.80    0.50
   0   1  -2   -1.10    2.50
   0  -1   2    3.00    1.70
   0  -1   2    2.50    1.00
   0  -1   2    0.30    0.50
   0   1   2    0.00    1.40
   0  -1  -2   -0.60    1.30
   0   1  -2    0.40    0.70
   0  -1  -2    0.50    0.60
   0   1   2    0.70    2.00
   0  -1   2    0.80    0.80
   0   1  -2    1.20    0.60
   0  -1  -2    2.00    2.10
   0  -2   2  457.15   37.90
   0  -2   2  480.25   37.60
   0  -2  -2  545.35   39.40
   0   2   2  495.15   38.80
   0  -2  -2  471.15   37.90
   0   2  -2  477.35   37.90
   0   2   2  509.25   38.10
   0   2  -2  504.95   38.50
   0   2  -2  506.05   40.50
   0  -2   2  457.45   40.30
   0  -2   2  444.96   38.40
   0  -2  -2  415.36   38.50
   0  -2  -2  490.85   39.50
   0   2  -2  464.75   38.30
   0   2   2  417.66   39.50
   0  -2   2  471.15   37.90
   0  -3   2    1.20    2.00
   0   3   2    1.50    3.90
   0  -3  -2    0.30    2.10
   0  -3  -2    3.70    3.50
   0   3   2    1.30    1.50
   0   3   2   -5.70    4.50
   0  -3  -2   -3.20    4.70
   0  -3   2    1.70    1.90
   0   3  -2   -4.80    3.60
   0  -3   2   -0.10    2.90
   0   3  -2    1.00    0.90
   0  -3  -2    3.00    1.90
   0   3  -2    4.70    5.50
   0  -3  -2   -5.80    2.20
   0   4   2 1879.11  144.79
   0  -4  -2 1780.72  143.09
   0  -4  -2 1925.71  144.19
   0  -4   2 1629.04  143.79
   0   4  -2 1867.31  146.49
   0  -4  -2 1915.51  142.89
   0  -4   2 1707.33  142.99
   0  -4   2 1725.13  142.69
   0  -5  -2    0.90    4.70
   0  -5  -2    4.50    5.00
   0  -5  -2    0.60    3.20
   0  -5   2    1.00    3.40
   0  -5  -2   -4.40    3.90
   0   5  -2    0.00    7.90
   0   5   2    1.70    6.50
   0  -5   2    0.20    3.50
   0  -6   2 1255.57   94.59
   0  -6  -2 1199.28   94.59
   0  -6  -2 1126.99   93.69
   0  -6  -2 1150.48   95.79
   0   6   2 1190.58   97.69
   0  -6   2 1179.78   94.99
   0   6  -2 1176.68   99.39
   0  -7  -2    5.20    7.30
   0   7   2    3.70   10.30
   0   7  -2    3.70   12.30
   0  -7   2   -0.50    6.10
   0  -7   2    3.30    5.60
   0  -7  -2   -4.20    6.10
   0   8  -2   84.89   20.40
   0  -8  -2   88.19   13.50
   0  -8   2   66.19   10.90
   0  -8   2   75.89   12.00
   0  -8  -2   95.79   12.60
   0   8   2   75.09   18.30
   0  -9  -2    4.20    9.90
   0  -9   2   -5.30    7.70
   0   9  -2    2.10   14.70
   0  -9  -2    0.30    9.20
   0   9   2    2.50   15.10
   0  -9   2  -10.80    7.60
   0  10  -2  311.07   40.50
   0  10   2  292.17   38.50
   0 -10   2  317.67   29.80
   0 -10  -2  279.47   32.80
   0 -10  -2  356.56   30.40
   0 -11  -2    9.20   13.10
   0 -11   2    7.60   12.50
  -1   0  -2   24.90    2.70
   1   0   2   28.90    3.10
   1   0  -2   21.70    2.40
   1   0  -2   11.00    3.40
  -1   0   2   21.60    2.40
   1   0  -2   21.90    2.70
   1   0  -2   21.60    2.40
  -1   0   2   19.50    2.60
  -1   0   2   18.50    1.70
  -1   0  -2   23.80    2.40
   1   0  -2   19.70    1.70
  -1  -1   2   11.50    2.70
   1  -1  -2   15.90    2.20
   1   1   2   19.30    3.20
  -1   1  -2   21.80    2.20
   1  -1  -2   19.10    2.80
  -1  -1   2   15.40    2.80
  -1   1  -2   24.70    3.20
  -1   1  -2   18.70    2.50
   1  -1  -2   14.40    1.90
  -1  -1   2   15.50    1.70
   1  -1  -2   20.10    2.80
  -1   1   2   16.90    2.00
  -1  -1  -2   15.60    2.50
   1  -1   2   16.60    2.10
   1  -1   2   19.80    2.90
   1  -1   2   16.00    2.50
  -1  -1  -2   16.70    3.20
   1   1  -2   15.90    3.30
   1   1  -2   14.60    1.70
  -1   1   2   16.90    2.80
  -1   1   2   15.00    2.20
   1   1  -2   19.20    2.90
  -1   1   2   15.70    1.90
   1  -2  -2   70.39    6.80
   1   2   2   73.79    7.70
  -1   2  -2   66.29    6.40
   1  -2  -2   61.69    5.70
  -1  -2   2   68.59    8.00
  -1  -2   2   67.79    5.90
   1  -2  -2   65.79    6.00
   1  -2  -2   66.89    6.10
  -1  -2  -2   67.79   10.50
  -1   2   2   66.09    6.80
   1   2  -2   66.29    5.90
   1  -2   2   70.29    7.50
  -1   2   2   70.29    6.20
   1  -2   2   63.89    6.40
  -1   2   2   65.59    6.00
  -1  -2  -2   75.29    7.60
   1   2  -2   56.99    7.80
   1  -2   2   73.39    6.20
  -1  -2  -2   73.69    6.50
   1  -3  -2  155.38   11.40
   1   3   2  157.98   13.50
  -1   3  -2  135.99   11.70
   1  -3  -2  137.19   12.00
  -1  -3   2  131.59   11.10
  -1   3  -2  126.49   12.80
   1  -3  -2  135.09   10.90
  -1  -3   2  100.29   12.70
  -1   3  -2  114.39   10.30
  -1   3   2  143.59   14.40
  -1  -3  -2  146.99   11.40
   1  -3   2  116.89   11.40
   1  -3   2  115.59   11.10
   1  -3   2  107.39   13.20
  -1   3   2  101.29   11.70
  -1   3   2  140.19   10.90
   1   3  -2  141.49   13.90
  -1  -3  -2  126.49   11.10
   1   3  -2  124.69   11.00
   1  -4  -2   34.70    5.30
   1  -4  -2   23.60    3.30
   1  -4  -2   27.10    5.10
  -1  -4   2   22.70    4.20
  -1   4  -2   35.60    5.70
   1  -4  -2   26.50    4.30
  -1   4  -2   15.00    4.30
  -1   4  -2   14.40   10.20
  -1  -4   2   25.60    5.20
   1   4   2   29.30    7.40
   1  -4   2   23.60    4.50
   1   4  -2   32.70    8.10
  -1   4   2   24.00    8.10
  -1  -4  -2   22.30    3.80
  -1  -4  -2   22.40    4.40
   1  -4   2   18.30    7.60
  -1   4   2   19.00    3.90
   1  -4   2   18.00    4.40
  -1  -4  -2   25.10    7.40
   1  -5  -2  161.98   14.70
  -1   5  -2  119.29   19.20
  -1  -5   2  133.09   13.10
   1  -5  -2  158.18   13.50
   1   5   2  169.68   17.30
  -1  -5   2  125.89   13.80
   1  -5  -2  160.28   14.10
   1   5  -2  130.99   17.00
  -1   5   2  130.39   12.10
   1  -5   2  120.29   13.50
  -1  -5  -2  185.28   17.10
  -1   5   2  151.38   17.80
  -1  -5  -2  140.69   13.10
  -1  -5  -2  169.78   13.60
   1  -5   2  129.19   13.30
  -1   6  -2    8.10   12.80
   1  -6  -2   10.30    6.10
  -1  -6   2   10.40    4.90
   1  -6  -2    8.60    5.50
  -1  -6   2    1.40    2.00
   1   6   2    7.90    8.20
  -1  -6   2    4.20    3.30
   1  -6  -2   27.20    6.40
  -1  -6   2    5.40    4.50
  -1  -6  -2   15.70    5.90
  -1  -6  -2   13.50    5.10
   1  -6   2    5.20    5.00
   1   6  -2   24.40   11.00
   1  -6   2    4.30    4.80
  -1   6   2   12.30   10.10
  -1  -6  -2   24.00    8.20
  -1  -7   2   96.39   13.10
   1   7   2  114.69   18.90
  -1   7  -2   90.99   20.30
  -1  -7   2  136.69   13.10
   1  -7  -2  142.49   15.10
   1  -7  -2  133.39   13.00
   1  -7   2  110.69   13.90
   1  -7   2  109.59   12.60
  -1  -7  -2  131.49   15.50
   1   7  -2  110.69   20.10
  -1   7   2  131.79   19.30
  -1  -7  -2  118.79   12.60
   1   8   2    5.10   11.40
  -1  -8   2   -0.30    6.70
  -1   8  -2   14.00   17.10
  -1  -8   2    0.80    7.20
   1  -8  -2    8.60    8.90
   1  -8  -2    5.40    7.90
   1  -8   2    0.30    6.50
  -1  -8  -2    5.90    8.50
  -1   8   2    0.10   11.00
   1  -8   2   -1.60    7.50
  -1  -8  -2   -1.70    7.40
   1   8  -2    8.70   13.00
  -1  -9   2   49.99   10.70
   1  -9  -2   55.49   12.80
  -1   9  -2   58.39   21.70
   1   9   2   57.99   18.80
   1  -9  -2   57.39   10.50
  -1  -9  -2   47.40   12.50
  -1   9   2   57.59   18.30
  -1  -9  -2   62.99   11.50
   1  -9   2   35.20   10.80
   1  -9   2   48.40   11.30
   1   9  -2   55.29   20.10
  -1 -10   2    1.30    8.80
  -1  10  -2   -1.70   19.70
   1 -10  -2    2.90   10.90
   1  10   2    3.80   18.50
   1 -10  -2    3.50   10.70
   1 -10   2    6.40   10.90
   1  10  -2    5.70   17.40
  -1 -10  -2   -6.10   10.20
  -1  10   2   -2.70   16.20
  -2   0   2  462.65   38.20
  -2   0  -2  450.15   37.50
   2   0   2  468.65   37.70
   2   0  -2  507.85   37.00
   2   0   2  481.85   37.70
  -2   0  -2  479.75   37.30
  -2   0  -2  431.76   37.60
  -2   0   2  472.05   37.70
  -2   0   2  458.55   36.90
   2   0  -2  449.66   37.60
   2  -1  -2  644.24   49.40
  -2  -1   2  672.33   50.89
  -2   1  -2  647.74   50.09
  -2  -1   2  588.64   49.80
  -2  -1   2  639.54   50.89
   2  -1  -2  631.14   50.19
   2  -1  -2  663.63   50.59
  -2   1  -2  638.34   49.99
  -2   1  -2  629.44   49.50
  -2   1   2  591.74   49.30
  -2  -1  -2  630.24   50.89
   2  -1   2  608.64   49.50
   2   1  -2  636.64   50.39
  -2  -1  -2  534.55   49.90
   2  -1   2  637.14   50.09
  -2  -1  -2  645.64   49.90
   2  -1   2  622.44   49.90
   2   1  -2  587.64   50.69
   2  -1   2  585.74   49.80
  -2   1   2  610.44   50.29
  -2   1   2  625.44   49.90
  -2   1   2  635.14   49.70
   2   2   2 3694.03  312.37
   2  -2  -2 4009.00  311.87
  -2  -2   2 3752.52  310.87
  -2   2  -2 4117.59  311.67
   2  -2  -2 3977.70  311.97
   2  -2  -2 4004.50  311.07
   2  -2  -2 4137.09  311.07
  -2  -2   2 4290.77  312.07
  -2   2  -2 4097.79  311.17
  -2   2  -2 3743.23  311.57
   2  -2   2 3726.53  311.57
   2  -2   2 4045.60  311.17
   2   2  -2 3695.63  312.67
  -2   2   2 3835.22  311.87
  -2   2   2 3952.70  311.07
  -2   2   2 3897.91  311.07
   2  -2   2 3975.50  311.47
  -2   2   2 4055.49  311.37
   2  -3  -2   65.59    6.70
  -2  -3   2   77.89    8.80
  -2  -3   2   62.29    6.20
  -2   3  -2   59.49   10.30
   2  -3  -2   73.09    7.90
   2   3   2   65.69    9.10
   2  -3  -2   57.79    6.20
  -2   3   2   62.99    8.00
   2  -3   2   67.89    7.70
  -2   3   2   71.69    6.70
   2  -3   2   66.79    7.10
   2   3  -2   64.09    9.70
   2  -3   2   70.49    6.70
  -2   4  -2  900.81   70.39
   2  -4  -2  927.31   71.99
   2  -4  -2  901.81   70.99
   2  -4  -2  795.32   70.59
   2   4   2  841.02   73.19
  -2  -4   2  880.01   70.69
   2   4  -2  819.62   73.49
   2  -4   2  938.71   71.69
  -2   4   2  938.61   71.19
  -2   4   2  854.61   71.29
   2  -4   2  939.11   71.59
  -2  -4  -2  919.91   71.39
   2  -4   2  867.01   70.89
  -2  -4  -2  903.11   70.89
  -2   5  -2   54.09    9.00
   2  -5  -2   39.60    7.70
  -2  -5   2   48.00    6.20
  -2   5  -2   14.70   16.80
   2   5   2   44.40   10.00
   2  -5  -2   46.40    6.70
   2  -5  -2   35.60    5.20
  -2  -5   2   37.80    9.40
  -2  -5  -2   41.60    6.40
   2   5  -2   41.70   10.50
   2  -5   2   39.10    7.10
  -2  -5  -2    3.90   11.10
   2  -5   2   52.69    6.90
  -2   5   2   32.10   12.70
  -2  -5  -2   31.90    6.00
  -2   6  -2  387.26   33.20
  -2  -6   2  389.56   34.10
   2  -6  -2  398.86   31.70
  -2   6  -2  376.36   42.60
   2  -6  -2  393.26   32.50
  -2  -6   2  394.76   32.00
   2   6   2  376.96   36.70
   2  -6  -2  398.66   33.70
  -2  -6   2  410.46   32.20
  -2  -6  -2  405.46   32.60
   2   6  -2  351.26   36.40
  -2   6   2  362.16   37.40
  -2  -6  -2  354.26   36.90
  -2   6   2  370.46   31.20
   2  -6   2  361.96   33.10
   2  -6   2  399.66   32.50
  -2  -6  -2  396.86   32.40
  -2   7  -2   49.50   19.70
  -2  -7   2   45.40    9.40
  -2  -7   2   45.20    7.20
   2  -7  -2   47.40   10.10
  -2  -7   2   47.30    7.80
   2  -7  -2   45.60    8.40
   2   7   2   47.50   14.80
  -2  -7  -2   63.19   13.80
   2  -7   2   47.60    9.30
  -2  -7  -2   42.20    8.00
  -2   7   2   38.20   14.70
   2   7  -2   56.69   16.00
   2  -7   2   46.80    8.70
  -2  -7  -2   41.90    8.40
   2  -8  -2  602.04   51.69
  -2   8  -2  611.34   60.89
   2   8   2  642.04   56.79
  -2  -8   2  521.65   50.39
  -2  -8   2  622.14   49.80
   2  -8  -2  603.04   49.99
   2   8  -2  637.24   56.89
  -2   8   2  577.34   56.69
   2  -8   2  599.84   49.90
  -2  -8  -2  609.64   52.69
   2  -8   2  569.54   50.79
  -2  -8  -2  629.34   50.09
   2  -9  -2   30.80   12.00
  -2   9  -2   19.40   21.30
  -2  -9   2   25.40    9.40
   2   9   2   20.40   18.30
   2  -9  -2   25.20    9.30
   2  -9   2   22.40   10.40
  -2  -9  -2   28.40   10.50
  -2   9   2   31.50   17.60
   2   9  -2   36.90   20.40
   2  -9   2   24.30    9.60
  -2  -9  -2   30.60   11.70
   2 -10  -2   83.29   15.30
   2  10   2   71.79   24.50
   2 -10  -2   58.19   14.90
  -2  10  -2   62.99   25.80
  -2 -10   2   65.89   13.60
  -2  10   2   49.80   21.70
  -2 -10  -2   78.19   14.50
   2 -10   2   75.39   13.60
   2  10  -2   88.29   26.80
   3   0   2  357.16   31.40
  -3   0  -2  384.46   30.60
   3   0  -2  353.76   30.60
  -3   0  -2  354.56   30.50
  -3   0   2  365.46   30.60
  -3   0  -2  384.36   29.90
   3   0  -2  391.86   29.90
  -3   0   2  376.26   29.50
   3   0   2  351.26   30.60
  -3  -1   2   14.50    3.70
   3  -1  -2   23.40    4.70
  -3   1  -2   19.80    3.10
  -3  -1   2   17.40    6.20
   3  -1  -2   40.70    6.90
  -3   1  -2   28.10    4.70
  -3  -1   2   18.60    3.10
   3  -1   2   20.20    4.50
   3  -1   2   17.30    4.70
  -3   1   2   19.20    4.20
   3  -1   2   20.90    3.50
  -3   1   2   18.70    2.70
   3  -1   2   13.60    4.30
  -3  -1  -2   31.80    5.00
  -3  -2   2  213.88   19.00
   3  -2  -2  203.38   18.30
  -3   2  -2  218.58   18.00
   3  -2  -2  215.28   17.10
   3  -2   2  234.08   18.40
   3  -2   2  197.08   17.20
   3  -2   2  209.38   18.20
   3   2  -2  191.28   19.50
  -3   2   2  209.58   17.10
  -3  -2  -2  193.88   18.10
   3  -2   2  192.08   17.90
  -3   2   2  218.48   17.60
  -3  -2  -2  182.18   17.90
  -3   2   2  206.38   18.50
   3  -3  -2   49.90    5.70
   3  -3  -2   37.40    5.00
   3   3   2   50.49    9.10
  -3  -3   2   42.90    4.80
   3  -3  -2   41.10    7.00
  -3  -3   2   38.90    7.30
  -3   3  -2   41.60    7.10
  -3  -3  -2   52.99    6.80
   3  -3   2   41.50    5.50
  -3   3   2   30.20    5.20
   3   3  -2   48.10    9.20
  -3   3   2   45.40    6.00
   3  -3   2   39.80    6.70
  -3   4  -2   71.19    7.50
  -3   4  -2   56.09   12.50
  -3  -4   2   74.69    7.60
   3  -4  -2   75.59    7.50
   3   4   2   67.69   11.70
   3  -4  -2   74.99    8.20
   3  -4  -2   77.59    9.60
  -3  -4   2   71.69   10.60
  -3   4   2   70.19   11.50
  -3   4   2   69.39    7.80
   3   4  -2   84.89   13.50
   3  -4   2   78.29    9.90
   3  -4   2   77.99    8.40
  -3  -4  -2   70.89    7.80
   3  -5  -2  121.69   11.50
   3  -5   2   94.19   11.90
  -3  -5  -2  162.88   12.40
   3   5  -2  152.08   17.80
  -3   5   2  132.49   14.20
  -3  -5  -2  149.39   26.40
   3  -5   2  100.29   13.10
  -3  -6   2   -0.30    9.80
   3   6   2   19.90   12.00
  -3   6  -2   12.90    2.70
  -3  -6   2   17.40    5.60
  -3  -6   2   21.60    9.40
   3  -6  -2   23.20    7.90
   3  -6  -2   11.60    6.40
  -3   6  -2   16.50    9.10
  -3  -6  -2   14.20    5.80
  -3   6   2    2.90   15.20
   3  -6   2   19.10    7.50
  -3  -6  -2   -7.20   13.80
  -3   6   2   26.60    5.70
   3   6  -2   21.40   11.20
  -3  -6  -2   18.20    6.20
   3  -6   2   23.60    6.30
  -3  -7   2   38.30   12.50
  -3   7  -2   50.89   10.00
   3  -7  -2   53.39   10.10
   3   7   2   51.59   14.80
   3  -7  -2   53.29    9.50
  -3  -7   2   36.10    7.60
  -3  -7   2   37.60    7.50
  -3   7  -2   14.70   20.00
  -3  -7   2   46.10   11.90
  -3  -7  -2   42.20    8.20
   3  -7   2   40.00    9.10
  -3  -7  -2   49.10    8.60
   3  -7   2   37.20    9.70
  -3   7   2   35.00   16.90
  -3  -7  -2   27.80   15.40
   3   7  -2   33.90   14.40
   3  -8  -2    5.50    8.50
  -3  -8   2   -6.50    6.70
  -3  -8   2    2.10    8.60
  -3  -8   2    1.50   13.60
   3   8   2    7.60   13.50
   3  -8  -2   -0.60    8.20
  -3   8  -2    3.70   20.60
  -3   8   2    9.80   16.10
   3  -8   2    4.30    7.50
   3  -8   2   -3.20    7.80
   3   8  -2   12.50   16.70
  -3  -8  -2    8.90   13.20
  -3  -8  -2    3.50    8.00
  -3  -9   2   37.90   16.50
  -3  -9   2   21.00    9.40
   3  -9  -2   34.20   12.60
   3   9   2   40.30   19.90
  -3   9  -2   44.70   24.70
   3  -9  -2   43.70   11.60
   3  -9   2   36.80   10.00
  -3  -9  -2   25.20    9.00
   3  -9   2   23.40   11.00
   3   9  -2   40.70   18.90
  -3  -9  -2   43.10   14.50
  -3   9   2   31.10   20.10
   3  10   2  -15.10   16.10
  -3 -10   2  -22.20   15.90
   3 -10  -2   -3.10   10.80
  -3  10  -2    6.00   24.70
  -3 -10   2    0.30    9.10
   3 -10  -2   -8.10    9.40
   3  10  -2   -3.40   21.60
   3 -10   2   -1.30   11.60
  -3 -10  -2   -2.70   16.30
  -3  10   2    6.50   18.70
  -3 -10  -2  -10.90   10.50
  -4   0  -2 2109.89  154.98
   4   0  -2 1902.21  154.88
  -4   0  -2 1928.61  154.18
  -4   0   2 1901.91  156.98
   4   0   2 2090.19  155.88
   4   0   2 1892.51  154.98
  -4   0   2 1970.40  154.78
  -4   0   2 1870.51  153.48
  -4   0  -2 1903.21  154.78
   4   0  -2 1872.81  154.28
  -4   1  -2  641.84   49.90
   4   1   2  579.04   49.30
  -4  -1   2  640.04   48.50
  -4   1  -2  527.75   49.20
   4  -1  -2  627.14   48.70
   4  -1  -2  587.14   49.99
   4  -1   2  615.24   50.09
  -4   1   2  604.14   48.50
   4  -1   2  617.34   49.10
  -4   1   2  627.84   49.70
   4  -1   2  511.55   51.89
  -4  -1  -2  633.44   49.99
  -4  -1  -2  659.03   49.40
  -4   1   2  642.14   50.59
  -4   2  -2  899.61   70.39
   4  -2  -2  897.01   70.89
  -4  -2   2  935.21   72.89
   4  -2  -2  816.22   69.19
  -4   2   2  840.72   70.69
   4  -2   2  810.92   70.59
  -4  -2  -2  857.81   70.49
   4   2  -2  847.82   72.19
  -4  -2  -2  948.31   71.79
  -4   2   2  898.61   69.99
   4  -2   2  831.82   69.39
  -4  -3   2   66.79   11.00
   4   3   2   64.69   11.50
  -4  -3   2   64.09    6.50
  -4   3  -2   69.29    8.90
   4  -3  -2   73.69    9.70
   4  -3  -2   70.69    7.30
  -4   3   2   64.69    9.10
   4   3  -2   66.09   11.90
  -4  -3  -2   53.09    9.10
   4  -3   2   69.89    7.70
  -4   3   2   61.89    8.10
   4  -3   2   63.49    9.30
  -4  -3  -2   71.99   10.00
   4  -4  -2  991.50   75.59
  -4  -4   2  878.11   75.79
  -4  -4   2  914.31   73.19
   4   4   2  888.41   76.89
  -4   4  -2  920.51   75.49
   4  -4  -2  941.01   73.59
   4  -4   2  965.40   73.79
   4   4  -2  881.71   77.09
  -4   4   2  885.01   74.49
   4  -4   2  912.01   75.09
  -4  -4  -2  918.11   75.49
   4  -5  -2    0.30    4.70
   4  -5  -2    5.80    7.40
   4   5   2    1.00    9.10
  -4  -5   2    3.90    4.30
  -4  -5   2    4.60    7.40
  -4   5  -2   -7.90   10.20
   4  -5   2    6.00    4.90
  -4   5   2  -17.90    8.10
   4  -5   2    8.60    7.20
  -4  -5  -2    6.20    4.90
  -4  -5  -2    7.90    7.70
   4   5  -2   17.20   11.10
  -4  -6   2  392.76   34.10
   4  -6  -2  429.06   34.70
  -4  -6   2  398.06   38.70
   4   6   2  424.16   40.00
   4  -6  -2  439.26   37.30
  -4  -6  -2  391.06   35.40
   4  -6   2  417.26   36.30
  -4  -6  -2  419.36   38.40
   4   6  -2  403.86   40.30
  -4  -6  -2  332.77   51.49
   4  -6   2  432.06   35.00
  -4  -6  -2  423.26   34.50
  -4   6   2  393.16   36.50
  -4  -7   2   80.59   20.20
   4  -7  -2   98.19   16.10
  -4  -7   2   92.59   12.70
  -4  -7   2   90.09   17.10
  -4   7  -2   21.60   27.30
  -4   7  -2  130.59   17.60
  -4  -7   2  106.99   11.70
   4   7   2  116.59   21.50
   4  -7  -2  107.19   12.70
   4   7  -2  105.19   20.80
  -4  -7  -2   94.09   13.40
   4  -7   2  132.29   14.20
  -4  -7  -2  126.59   13.20
   4  -7   2   99.09   15.10
  -4   7   2   77.89   25.90
  -4  -7  -2   31.00   22.90
  -4  -7  -2   89.99   17.70
  -4   8  -2  254.67   46.40
  -4  -8   2  209.08   25.70
   4  -8  -2  207.08   21.70
   4   8   2  191.58   28.20
  -4  -8   2  200.38   20.40
  -4  -8   2  211.38   29.40
   4  -8  -2  233.28   24.80
  -4  -8  -2  222.78   33.90
   4   8  -2  198.58   29.70
   4  -8   2  233.88   24.00
  -4   8   2  216.88   34.90
  -4  -8  -2  220.18   28.40
  -4  -8  -2  225.88   21.30
   4  -8   2  209.18   21.80
  -4   9  -2   46.40   29.50
   4  -9  -2   41.00   14.40
  -4  -9   2   39.50   10.40
  -4  -9   2   28.20   18.60
   4   9   2   49.40   21.50
   4  -9  -2   42.30   12.00
  -4   9   2   39.60   22.20
  -4  -9  -2   33.00   17.80
  -4  -9  -2   46.10   11.30
  -4  -9  -2   40.70   25.80
   4  -9   2   44.90   13.80
   4  -9   2   54.79   12.60
   4   9  -2   44.20   20.60
  -4  10  -2  156.68   38.90
   4  10   2  159.38   33.00
  -4 -10   2  175.88   20.30
  -4 -10   2  138.69   27.40
   4 -10  -2  161.38   24.00
   4 -10  -2  149.29   20.90
  -4 -10  -2  151.48   28.60
  -4 -10  -2  174.88   21.00
   4 -10   2  153.18   21.30
   4  10  -2  154.28   31.50
  -5   0   2  282.17   26.00
  -5   0  -2  298.67   26.10
  -5   0   2  305.27   24.00
  -5   0   2  318.77   29.00
  -5   0  -2  274.37   25.80
   5  -1  -2   20.40    4.70
   5  -1  -2   29.50    6.90
  -5  -1   2   27.30    7.40
  -5   1  -2   27.00    5.50
  -5   1  -2   32.30    7.40
  -5  -1  -2   35.80    7.50
   5  -1   2   15.60    5.30
  -5   1   2   26.50    7.00
  -5   1   2   28.30    6.80
  -5  -1  -2   29.50    8.90
  -5   2  -2  185.88   17.90
   5  -2  -2  191.88   18.40
   5  -2  -2  181.78   15.90
  -5   2  -2  187.18   17.50
  -5  -2   2  206.38   16.30
  -5  -2   2  147.79   22.90
  -5   2   2  202.28   18.40
   5  -2   2  181.88   16.60
  -5   2   2  197.48   17.80
   5  -2   2  184.78   18.30
  -5  -2  -2  129.49   21.70
  -5  -2  -2  178.28   17.90
  -5   3  -2  108.29   12.30
   5   3  -2  109.19   15.90
  -5   3   2  111.39   11.70
  -5  -3  -2  102.79   15.20
  -5   3   2   90.39   12.30
  -5  -4   2   71.89   13.70
  -5  -4   2   71.19    7.90
   5  -4  -2   75.59    8.90
   5  -4  -2   81.09   12.20
  -5   4  -2   79.39   12.20
   5  -4   2   67.59    9.10
   5  -4   2   87.29   12.10
  -5  -4  -2   85.49   13.30
   5   4  -2   72.59   14.60
  -5   4   2   71.59   10.60
  -5  -4  -2   64.89   11.50
  -5  -5   2    3.70    8.70
   5  -5  -2    7.30    7.90
   5   5   2    9.60   10.90
  -5   5  -2    3.90   11.50
   5  -5  -2    5.20    5.00
  -5  -5   2    3.00    4.50
  -5  -5  -2   -0.20    8.50
   5  -5   2    2.80    7.30
   5  -5   2    6.50    6.20
  -5  -5  -2   12.00    8.60
   5   5  -2   11.50   11.10
  -5  -5  -2    9.50    5.50
  -5   5   2   12.60   10.30
   5  -6  -2   23.50    7.80
   5   6   2   26.50   13.90
   5  -6  -2   32.70   10.50
  -5  -6   2   34.60    6.70
  -5   6  -2   32.50   13.20
  -5  -6   2   21.90   12.40
   5   6  -2   27.30   14.10
   5  -6   2   24.10   10.30
  -5  -6  -2   24.20    6.90
  -5  -6  -2   29.20   11.00
  -5   6   2   52.29   10.90
   5  -6   2   22.10    7.40
  -5  -6  -2   16.70    8.90
  -5  -6  -2   21.20   10.20
  -5   7  -2   63.79   20.80
   5  -7  -2   78.59   15.10
   5   7   2   58.99   17.60
  -5  -7   2   72.29   17.00
   5  -7  -2   75.59   11.30
  -5  -7   2   68.49    9.80
  -5  -7   2   27.00   18.70
  -5  -7  -2   67.59   16.40
  -5  -7  -2   71.79   26.10
   5  -7   2   67.19   11.20
  -5  -7  -2   74.29   10.80
  -5  -7  -2   69.99   12.30
   5   7  -2   91.09   21.10
  -5  -7  -2   94.79   14.60
   5  -7   2   56.09   12.20
  -5   8  -2  -37.10   26.40
  -5  -8   2   16.50   16.10
   5  -8  -2    7.10    8.90
   5  -8  -2    1.00   10.40
  -5  -8   2   -3.60    7.90
   5   8   2    1.70   15.60
   5  -8   2    4.40    9.30
  -5  -8  -2    7.90   11.30
  -5  -8  -2   -2.60    8.00
   5  -8   2    2.50    9.50
   5   8  -2   17.30   17.00
  -5   8   2   -8.30   23.00
  -5  -8  -2    2.50   14.60
  -5  -8  -2  -29.60   19.30
  -5   9  -2   12.90   32.50
   5   9   2   42.70   20.20
   5  -9  -2   18.50   15.00
   5  -9  -2   40.20   12.20
  -5  -9   2   25.10    9.50
  -5  -9   2   29.80   19.00
  -5  -9  -2   15.40   18.10
  -5  -9  -2   19.80   13.40
   5  -9   2   19.20   12.80
  -5   9   2   30.20   24.00
   5  -9   2   30.50   12.20
  -5  -9  -2   18.50   10.60
   5   9  -2   25.50   22.40
  -6   0  -2 1122.99   92.69
  -6   0   2 1128.59   92.89
  -6   0   2 1224.78   95.39
  -6   0  -2 1109.79   92.89
  -6  -1   2  120.79   23.80
   6  -1  -2  177.28   18.60
  -6  -1   2  157.38   16.50
   6  -1  -2  185.68   17.20
  -6   1  -2  192.48   18.70
  -6   1  -2  167.68   17.40
  -6  -1   2  171.38   18.50
  -6   1   2  189.88   19.30
  -6  -1  -2  201.68   21.40
  -6   1   2  191.58   18.70
  -6  -1  -2  206.18   19.30
   6  -1   2  182.28   18.20
   6  -2  -2  373.06   33.90
  -6  -2   2  371.26   33.70
  -6   2  -2  397.36   33.10
   6  -2  -2  403.06   31.80
  -6   2  -2  394.56   33.60
  -6  -2  -2  357.76   33.40
  -6   2   2  381.26   33.10
   6  -2   2  366.86   31.90
  -6   2   2  364.66   33.60
  -6  -3   2   77.89   18.70
  -6   3  -2  103.39   13.50
   6  -3  -2   83.09    9.60
   6  -3  -2   94.29   13.30
  -6   3   2   80.59   11.40
  -6   3   2   98.09   13.60
  -6  -3  -2   73.79   17.50
  -6  -3  -2   87.09   13.10
   6  -3   2   81.69   13.10
   6  -3   2   85.89   10.60
  -6   4  -2  350.96   34.40
  -6  -4   2  373.66   31.60
   6  -4  -2  389.86   32.40
  -6  -4   2  430.16   39.40
   6  -4  -2  393.16   35.10
  -6  -4  -2  338.37   34.10
   6  -4   2  400.06   35.00
   6  -4   2  385.26   32.60
  -6   4   2  406.16   33.70
  -6  -4  -2  395.96   37.80
   6  -5  -2    3.00    5.50
  -6  -5   2    0.50    4.80
  -6   5  -2    6.80   10.90
  -6  -5   2   11.20   10.90
   6  -5  -2    5.00    9.00
  -6   5   2    5.60    9.30
   6  -5   2    0.50    6.70
   6  -5   2    8.40    8.90
  -6  -5  -2    6.90    5.70
   6   5  -2   13.30   12.70
  -6  -5  -2    3.20   10.10
  -6  -5  -2    8.00   10.90
  -6   6  -2  356.16   44.90
  -6  -6   2  479.45   44.10
   6  -6  -2  446.96   41.30
  -6  -6   2  444.46   37.80
   6  -6  -2  457.35   38.70
   6   6  -2  436.46   45.80
  -6  -6  -2  389.86   40.10
  -6  -6  -2  455.95   38.20
   6  -6   2  487.35   41.90
   6  -6   2  465.15   39.00
  -6  -6  -2  494.65   44.40
  -6  -6  -2  515.95   41.70
   6  -7  -2   21.50    9.30
  -6  -7   2  -29.40   18.90
   6  -7  -2   18.60   11.80
  -6  -7   2    2.80    7.70
   6   7   2   26.10   18.80
  -6  -7   2   28.50   16.30
  -6  -7  -2   13.20   12.80
   6  -7   2   20.00    8.40
  -6  -7  -2   19.80   14.50
   6   7  -2   31.50   19.70
  -6  -7  -2   10.20    9.90
  -6  -7  -2   33.70    9.40
  -6  -7  -2   13.70   24.70
   6  -7   2   25.70   12.60
   6  -8  -2   85.29   13.90
   6  -8  -2   68.09   16.30
   6   8   2   86.79   25.70
  -6  -8   2   84.89   17.30
  -6  -8   2   61.59   19.50
  -6  -8  -2   98.19   19.20
  -6  -8  -2   43.90   25.20
  -6  -8  -2   84.49   21.90
   6  -8   2   79.39   16.80
   6  -8   2   61.49   13.60
  -6  -8  -2   85.99   14.00
   6   8  -2   78.69   23.70
   6  -9  -2   50.69   13.50
  -6  -9   2   21.40   20.40
   6  -9  -2   26.40   13.60
  -6   9  -2   -8.00   37.90
   6   9   2   17.70   20.60
  -6  -9  -2   25.00   13.00
   6  -9   2   22.50   11.00
   6   9  -2   22.50   21.80
  -6  -9  -2   23.80   17.00
  -6  -9  -2   35.40   16.70
   6  -9   2   14.40   12.40
  -7   0  -2  108.89   16.40
  -7   0  -2  108.99   14.30
  -7   0   2  115.69   17.70
  -7   0   2  110.99   16.40
  -7   1  -2   84.19   12.90
  -7  -1   2   56.19   16.40
  -7  -1   2   48.30   11.30
   7  -1  -2   52.69   11.60
  -7   1  -2   54.39    9.50
  -7   1   2   50.59   11.00
  -7   1   2   73.39   12.10
   7  -1   2   49.99   12.10
  -7  -1  -2   68.69   12.40
  -7  -1  -2   69.19   12.40
   7  -2  -2   84.79   14.20
  -7   2  -2   86.29   12.50
  -7  -2   2   83.29   14.30
  -7   2  -2   86.29   13.50
   7  -2  -2   89.39   11.60
  -7   2   2   97.39   14.20
  -7  -2  -2   87.89   15.00
  -7  -2  -2   69.19   17.50
  -7   2   2   96.89   14.00
   7  -2   2  105.39   12.90
  -7  -3   2  -11.10   12.30
   7  -3  -2   15.00    9.60
   7  -3  -2    7.90    6.30
  -7  -3   2   31.60   12.10
  -7   3  -2   23.70   10.10
  -7  -3  -2   40.60   11.70
   7  -3   2   21.50    7.20
  -7   3   2   22.70    9.10
  -7   3   2   20.90    9.50
   7  -3   2   13.80    9.50
  -7  -3  -2  -11.20   10.40
  -7  -4   2   64.09    7.60
  -7  -4   2   38.00   17.80
  -7   4  -2   52.49   12.40
   7  -4  -2   50.89   12.70
   7  -4  -2   49.99    9.00
  -7  -4   2   60.19   14.80
   7  -4   2   54.89   12.80
  -7  -4  -2   30.70   16.00
  -7   4   2   42.70   11.40
   7  -4   2   50.79    9.60
  -7  -4  -2   68.79   14.30
  -7  -5   2   70.59   16.20
  -7   5  -2   46.90   14.40
   7  -5  -2   61.09   13.50
  -7  -5   2   48.10   18.40
   7  -5  -2   42.80    9.00
  -7  -5  -2   65.89   13.80
   7  -5   2   66.79   10.40
  -7   5   2   70.49   13.60
  -7  -5  -2   74.89    9.80
   7  -5   2   37.10   12.10
  -7  -5  -2   54.69   17.10
  -7  -6   2   22.60   15.70
  -7  -6   2   34.00   17.60
   7  -6  -2   20.80    8.40
   7  -6  -2   17.30   11.60
  -7   6  -2   33.50   17.80
  -7  -6  -2   17.80    8.30
  -7  -6  -2   16.60   15.60
  -7  -6  -2    6.00   11.60
   7  -6   2   21.00    8.90
  -7  -6  -2    9.90   13.10
   7  -6   2   17.60   11.80
  -7  -7   2   18.80   17.90
   7  -7  -2    5.60   11.80
   7  -7  -2    8.80    9.10
  -7  -7   2    1.00   16.50
  -7  -7  -2   14.30   16.40
  -7  -7  -2    6.20   14.40
  -7  -7  -2    4.50   13.00
   7   7  -2   25.00   18.80
  -7  -7  -2   13.20    8.50
   7  -7   2    1.60    9.60
   7  -7   2    4.90   11.50
  -7  -8   2   13.90   20.00
  -7  -8   2    4.20   18.30
   7  -8  -2   -3.80   12.30
   7  -8  -2   16.30   10.50
  -7  -8  -2   10.30   17.80
   7  -8   2   10.10   10.50
   7   8  -2   -2.00   19.20
  -7  -8  -2   13.20   15.60
  -7  -8  -2   59.79   23.30
   7  -8   2    0.50   12.00
  -8   0  -2   62.29   11.60
  -8   0   2   72.39   14.70
  -8   0   2   75.89   15.30
  -8   0  -2   52.69   13.40
  -8  -1   2   25.00   14.60
  -8  -1   2   28.10   13.20
  -8   1  -2   27.20    8.70
  -8   1  -2   30.20   11.20
  -8   1   2   20.80   11.20
  -8   1   2   42.20   12.00
  -8  -1  -2   23.80   10.60
  -8  -1  -2   27.80   12.90
  -8   2  -2  564.14   49.90
  -8  -2   2  466.45   56.19
  -8  -2   2  576.94   49.99
  -8   2  -2  578.04   48.70
   8  -2  -2  582.84   48.60
  -8  -2  -2  581.54   53.19
  -8   2   2  556.54   50.29
  -8   2   2  547.15   49.30
  -8  -2  -2  581.64   50.59
   8  -2   2  596.34   49.40
   8  -3  -2   15.00    7.80
   8  -3  -2   18.30   11.30
  -8   3  -2   17.80   11.80
  -8  -3   2  -10.00   14.40
  -8  -3   2   14.40   13.70
  -8  -3  -2   23.80   13.30
   8  -3   2   20.40    9.00
  -8   3   2   20.30   10.50
  -8   3   2   10.20   10.70
  -8  -3  -2   11.70   13.30
   8  -4  -2  235.78   24.90
  -8   4  -2  193.28   24.30
   8  -4  -2  192.88   20.50
  -8  -4   2  214.98   24.70
  -8   4   2  212.78   22.70
   8  -4   2  216.98   20.90
  -8  -4  -2  188.38   23.80
  -8  -5   2   12.20   13.50
   8  -5  -2   13.20    8.20
   8  -5  -2   11.00   12.30
  -8   5  -2   13.70   12.40
  -8  -5   2    9.40   18.40
   8  -5   2   11.00    8.50
   8  -5   2    4.80   11.50
  -8  -5  -2   15.50   14.60
  -8  -5  -2   15.80   17.10
  -8   5   2   14.60   12.00
   8  -6  -2   79.99   12.90
  -8  -6   2   67.99   24.80
   8  -6  -2   68.29   18.40
  -8  -6   2   75.09   21.80
  -8  -6  -2   78.09   17.20
  -8  -6  -2   54.29   21.90
   8  -6   2   86.69   18.30
   8  -6   2   80.39   12.80
  -8  -6  -2   61.19   17.90
   8  -7  -2    6.20    9.70
  -8  -7   2   31.40   21.70
   8  -7  -2    0.50   12.70
  -8  -7   2    8.10   20.20
  -8  -7  -2   27.60   21.40
  -8  -7  -2   -4.00   13.50
  -8  -7  -2  -18.50   15.00
   8  -7   2   -1.90   14.10
   8  -7   2    5.40    9.90
  -9   0   2   20.20   12.50
  -9   0  -2   23.40   12.90
  -9   0   2   19.90   12.60
  -9  -1   2   41.60   14.10
  -9  -1   2   52.89   16.90
  -9   1  -2   38.70   15.00
  -9   1   2   46.50   13.70
  -9   1   2   44.90   14.30
  -9  -1  -2   50.59   15.80
  -9  -2   2   32.80   19.10
  -9   2  -2   12.60   11.60
  -9  -2   2   24.00   13.90
  -9   2   2   24.80   11.90
  -9  -2  -2   35.20   15.80
  -9   2   2   15.70   12.90
  -9  -3   2   37.00   17.20
  -9   3  -2   32.10   13.60
   9  -3  -2   28.30   10.90
  -9  -3   2   16.50   20.90
  -9  -3  -2   48.70   14.90
   9  -3   2   36.50   12.10
  -9   3   2   28.60   13.30
  -9  -4   2   10.20   17.40
  -9  -4   2   24.90   15.20
   9  -4  -2   33.30   15.90
  -9   4  -2   35.00   14.60
   9  -4  -2   28.20   10.40
  -9   4   2   23.20   13.50
  -9  -4  -2   30.00   14.70
   9  -4   2   33.70   11.00
  -9  -5   2   37.90   16.90
   9  -5  -2   34.80   16.70
   9  -5  -2   28.80   10.40
  -9  -5   2   64.59   19.00
  -9   5  -2   22.80   15.10
   9  -5   2   20.80   10.80
  -9  -5  -2   37.40   16.00
   9  -6  -2   16.90   10.70
  -9  -6   2   24.30   20.50
   9  -6  -2   -1.90   14.00
  -9  -6   2   -6.00   19.70
  -9  -6  -2   18.30   19.70
   9  -6   2   18.70   11.10
  -9  -6  -2  -11.20   16.30
 -10   0  -2  318.27   35.70
 -10   0   2  303.37   32.70
 -10   1  -2    5.10   15.30
 -10  -1   2   -3.40   16.80
 -10   1   2   -0.40   15.70
 -10  -1  -2    2.70   14.40
 -10  -2   2   80.19   21.70
 -10   2  -2   66.69   18.80
 -10   2   2   59.29   18.70
 -10  -2  -2   66.79   20.90
 -10   3  -2   11.70   14.60
 -10  -3   2    6.00   19.30
 -10   3   2   14.10   15.00
 -10  -3  -2    6.70   15.20
 -10   4  -2  168.28   26.30
 -10  -4   2  183.98   33.20
 -10   4   2  157.58   25.50
 -10  -4  -2  180.78   30.70
 -11   0  -2    7.00   20.20
 -11   0   2    6.60   19.20
 -11  -1   2   31.30   18.90
 -11   1  -2   17.60   17.90
 -11   1   2   11.30   18.30
 -11  -1  -2   26.90   17.70
   0   0   3    3.90    1.80
   0   0   3    0.40    2.00
   0   0  -3   -0.60    1.90
   0   0   3    2.70    1.70
   0   0  -3    1.90    1.80
   0   0  -3    2.90    1.80
   0   0   3    1.90    1.50
   0   0  -3    1.30    1.70
   0   1   3   -0.10    0.70
   0  -1  -3    0.30    1.10
   0   1   3    0.30    1.70
   0   1  -3   -3.90    3.50
   0  -1   3    1.70    0.90
   0   1  -3    0.20    2.20
   0  -1  -3   -0.50    0.70
   0   1  -3    0.50    0.80
   0   1   3    0.90    1.00
   0  -1  -3    0.10    2.50
   0  -1   3    1.40    1.90
   0  -1  -3    0.00    1.00
   0  -1  -3   -0.70    1.90
   0  -1   3    0.30    1.30
   0   1  -3    0.40    1.20
   0  -2  -3   30.70    5.10
   0  -2   3   29.50    3.10
   0   2  -3   25.80    3.00
   0   2  -3   24.20    6.70
   0  -2   3   24.20    4.20
   0   2  -3   30.40    4.20
   0  -2  -3   22.00    4.30
   0   2  -3   22.30    2.40
   0   2   3   25.10    3.50
   0  -2   3   22.50    2.80
   0   2   3   21.00    5.50
   0   2   3   22.70    3.70
   0  -2   3   19.20    2.60
   0  -2  -3   31.50    3.30
   0  -2  -3   27.70    5.30
   0   2  -3   26.30    3.30
   0  -3   3    1.10    1.10
   0   3   3   -0.60    5.00
   0  -3   3    1.20    1.80
   0   3   3   -0.70    1.70
   0   3  -3   -1.40    5.70
   0  -3   3   -0.60    1.90
   0   3  -3   -4.20    3.20
   0  -3  -3    5.30    4.30
   0  -3  -3   -4.90    2.70
   0  -3  -3   -2.30    2.10
   0  -3   3    0.60    3.20
   0   3  -3    1.20    1.10
   0   3   3    1.40    3.20
   0  -3  -3    1.90    5.10
   0  -4   3   77.39    9.30
   0   4   3   90.09    9.00
   0  -4  -3  115.89    9.70
   0   4   3  118.39   12.00
   0  -4  -3  124.09    9.90
   0  -4   3   85.09    9.20
   0   4  -3  108.29   14.70
   0  -4  -3  128.89   11.70
   0  -5   3   -1.20    3.70
   0   5  -3    1.10    9.40
   0   5   3    1.40    6.20
   0  -5   3    1.10    3.20
   0  -5  -3    3.90    4.90
   0  -5  -3    0.40    3.60
   0  -5  -3   -1.90    4.30
   0  -6  -3   85.39   14.50
   0  -6  -3  133.49   12.80
   0   6   3  148.99   17.20
   0  -6   3  107.89   13.00
   0  -6  -3  155.38   12.30
   0  -6   3  111.89   12.70
   0   6  -3  122.79   19.20
   0  -6  -3  153.28   14.70
   0  -7   3   -1.10    5.30
   0   7  -3    3.40   11.60
   0  -7  -3    1.60    2.20
   0   7   3    9.40   10.40
   0  -7   3    4.90    5.80
   0  -7  -3   -3.80    6.30
   0  -7  -3    9.10    7.70
   0   8   3   57.49   15.40
   0  -8   3   63.19    9.90
   0  -8  -3   71.99   10.90
   0  -8  -3   47.50   11.40
   0   8  -3   59.49   19.70
   0  -8   3   55.49    9.90
   0  -9  -3   -0.80    7.90
   0   9   3  -12.40   13.60
   0  -9   3   -2.10    7.70
   0  -9  -3    0.30    9.40
   0   9  -3    5.20   15.70
   0  10   3   66.19   20.50
   0  10  -3   70.69   25.10
   0 -10  -3   56.29   15.00
   0 -10   3   76.09   14.00
   0 -10  -3   64.49   12.40
  -1   0  -3   -0.90    1.30
   1   0  -3    0.80    1.40
  -1   0   3    0.50    1.10
   1   0  -3    1.60    1.30
  -1   0   3   -3.20    3.10
  -1   0   3   -0.20    1.30
   1   0   3   -0.20    0.70
  -1   0   3   -0.10    0.40
  -1   0  -3    2.00    1.80
   1   0  -3    0.30    0.40
   1   0  -3    0.60    1.20
  -1   0  -3   -0.60    1.20
   1   0   3   -2.90    1.60
  -1   1  -3 1374.46   98.79
   1   1   3 1395.66   98.89
  -1   1  -3 1231.68   98.79
  -1  -1   3 1118.69   98.29
   1  -1  -3 1301.07   98.49
  -1  -1   3 1200.98   98.79
  -1   1  -3 1301.07   99.19
   1  -1  -3 1227.08   98.99
  -1  -1   3 1310.97   99.29
  -1  -1   3 1163.28   98.49
  -1  -1   3 1199.28   99.49
   1  -1  -3 1189.48   98.79
   1  -1   3 1324.47   99.19
   1  -1   3 1289.17   98.59
  -1   1   3 1311.17   98.89
   1  -1   3 1175.38   98.79
  -1   1   3 1273.07   98.49
   1   1  -3 1181.18   98.39
   1   1  -3 1223.08   99.59
  -1  -1  -3 1279.67   98.99
  -1  -1  -3 1054.89   98.69
  -1   1   3 1285.77   99.19
  -1  -1  -3 1304.07   99.29
  -1   2  -3  547.85   40.70
   1  -2  -3  524.55   40.90
   1   2   3  540.55   41.80
  -1  -2   3  480.95   40.60
  -1  -2   3  490.35   41.50
  -1   2  -3  494.15   41.00
   1  -2  -3  454.55   40.40
   1  -2  -3  525.15   40.80
  -1  -2   3  465.35   40.80
   1  -2  -3  517.25   41.50
   1   2  -3  521.65   40.60
   1  -2   3  456.55   40.90
  -1   2   3  550.94   41.20
   1  -2   3  541.55   40.90
   1   2  -3  540.95   42.70
  -1   2   3  515.05   41.60
  -1   2   3  511.35   40.80
  -1  -2  -3  487.85   41.80
   1  -2   3  526.45   42.10
  -1  -2  -3  501.55   41.10
  -1  -2  -3  584.84   44.50
  -1  -3   3 1176.28  105.69
   1  -3  -3 1348.67  105.09
   1  -3  -3 1324.57  105.09
  -1   3  -3 1192.38  106.59
  -1  -3   3 1350.96  104.99
  -1  -3   3 1343.17  104.89
  -1   3  -3 1452.25  105.49
   1   3   3 1251.07  106.29
   1  -3  -3 1261.27  104.69
   1  -3  -3 1322.97  105.89
  -1  -3  -3 1440.66  106.99
   1   3  -3 1359.36  107.49
   1   3  -3 1369.96  104.99
   1  -3   3 1308.47  105.09
  -1  -3  -3 1355.06  105.29
  -1   3   3 1387.46  107.29
   1  -3   3 1209.98  105.19
  -1  -3  -3 1408.06  105.09
   1   4   3  564.74   46.30
  -1   4  -3  497.35   50.99
   1  -4  -3  560.74   44.00
  -1  -4   3  582.14   44.20
  -1   4  -3  636.84   45.80
  -1  -4   3  496.45   43.80
  -1  -4   3  532.35   44.70
   1  -4  -3  503.55   45.20
   1  -4  -3  551.14   44.40
  -1   4  -3  576.04   45.20
  -1  -4  -3  543.45   44.30
   1  -4   3  548.85   44.30
   1  -4   3  547.15   44.60
  -1   4   3  559.64   45.00
   1   4  -3  547.35   47.50
  -1  -4  -3  541.95   44.50
  -1   4   3  552.24   46.90
  -1   5  -3  269.67   30.70
  -1  -5   3  252.47   21.50
   1   5   3  232.18   24.40
  -1  -5   3  265.97   22.10
  -1  -5   3  246.38   21.30
   1  -5  -3  261.67   21.50
   1  -5  -3  268.37   23.70
   1  -5  -3  259.27   22.30
   1  -5  -3  250.67   22.20
  -1  -5   3  262.47   22.60
   1   5  -3  249.18   26.30
  -1   5   3  271.57   25.70
  -1   5   3  265.77   21.70
  -1  -5  -3  277.97   22.40
   1  -5   3  264.97   22.60
   1  -5   3  257.37   22.20
  -1  -5  -3  290.87   22.90
  -1  -5  -3  300.67   26.40
   1   6   3  132.69   17.50
   1  -6  -3  166.88   14.40
   1  -6  -3  156.58   14.80
  -1   6  -3  162.08   24.50
  -1  -6   3  142.79   12.60
  -1  -6   3  153.68   13.10
  -1  -6   3  147.19   14.60
   1  -6  -3  151.28   12.90
  -1  -6   3  163.98   14.40
   1  -6  -3  154.68   16.30
  -1   6   3  142.29   18.00
   1   6  -3  153.88   21.00
  -1  -6  -3  164.28   14.70
   1  -6   3  157.48   14.90
  -1  -6  -3  130.49   15.90
  -1  -6  -3  166.18   18.20
   1  -6   3  145.79   14.70
  -1   7  -3  425.56   43.80
   1  -7  -3  429.26   37.30
  -1  -7   3  415.46   35.20
  -1  -7   3  426.36   35.90
   1  -7  -3  433.66   35.60
   1   7   3  407.76   39.30
  -1  -7  -3  427.66   35.50
   1   7  -3  408.66   42.10
   1  -7   3  399.76   36.10
  -1  -7  -3  457.25   38.40
  -1   7   3  388.66   39.90
   1  -7   3  446.56   35.80
  -1  -8   3   18.20    7.10
   1  -8  -3   17.20    9.10
   1   8   3   22.20   14.20
  -1  -8   3   15.70    8.00
   1  -8  -3   10.90    7.60
  -1   8  -3   24.80   18.50
   1  -8   3   24.90    8.40
  -1  -8  -3   14.50    7.30
   1  -8   3   23.80    8.70
  -1  -8  -3   19.10    9.70
   1   8  -3   28.90   14.90
  -1   8   3    9.60   13.10
   1  -9  -3  203.38   22.80
  -1   9  -3  195.08   33.00
  -1  -9   3  192.78   19.80
   1  -9  -3  196.18   21.00
   1   9   3  208.08   30.00
   1  -9   3  198.78   21.10
  -1  -9  -3  210.48   21.10
  -1  -9  -3  198.78   23.10
   1  -9   3  212.28   21.10
   1   9  -3  218.58   33.20
  -1   9   3  189.68   27.70
  -1  10  -3    1.90   20.60
  -1 -10   3    2.70   10.10
   1 -10  -3   11.40   12.50
   1 -10  -3   -1.10   11.30
   1  10   3   -2.00   17.10
   1  10  -3   13.70   18.40
  -1 -10  -3    2.00   11.10
  -1  10   3   13.80   17.30
  -1 -10  -3    5.50   13.40
   1 -10   3    9.70    9.60
  -2   0  -3   -0.60    1.90
  -2   0   3    1.10    1.90
   2   0   3    0.40    2.00
  -2   0   3   -0.40    0.40
   2   0  -3    0.70    0.80
   2   0   3   -0.20    1.70
   2   0  -3    2.10    4.10
  -2   0  -3    2.20    1.20
   2   0   3   -1.00    2.80
  -2   0   3    0.70    2.60
  -2   0  -3    1.00    2.60
  -2   0   3    0.80    0.70
  -2   0   3   -5.30    4.00
   2   0  -3    0.80    2.10
  -2  -1   3   22.70    4.70
  -2   1  -3   30.00    4.50
   2  -1  -3   31.20    4.90
  -2   1  -3   28.60    4.10
  -2   1  -3   33.90    3.50
   2  -1  -3   28.70    4.10
   2  -1  -3   22.80    2.90
   2   1   3   24.00    4.00
  -2  -1   3   26.10    3.50
  -2  -1   3   31.40    6.00
   2   1  -3   28.40    4.80
   2   1  -3   24.10    5.00
   2  -1   3   33.50    4.40
  -2   1   3   24.60    3.60
  -2   1   3   31.10    4.80
   2  -1   3   23.90    3.40
  -2  -1  -3   34.20    5.40
  -2  -1  -3   25.00    4.40
  -2   1   3   23.30    2.70
  -2  -1  -3   27.70    3.50
   2  -1   3   22.20    3.90
   2  -1   3   28.30    3.40
  -2   1   3   31.50    4.30
  -2   1   3   25.70    3.60
  -2   2  -3   35.70    4.40
  -2  -2   3   28.20    3.70
   2  -2  -3   44.10    4.30
  -2  -2   3   32.80    5.70
   2   2   3   44.00    6.40
  -2   2  -3   37.00    5.80
  -2   2  -3   32.70    4.90
   2  -2  -3   53.69    5.70
   2  -2  -3   40.00    4.60
   2  -2   3   34.10    4.60
   2  -2   3   34.80    5.00
   2  -2   3   33.60    5.30
  -2   2   3   39.20    4.30
   2   2  -3   48.50    7.00
  -2  -2  -3   54.59    5.60
  -2   2   3   34.20    4.10
  -2   2   3   48.50    5.80
  -2   2   3   39.10    4.90
   2  -3  -3  116.59   10.00
  -2  -3   3  103.69   11.20
   2  -3  -3  118.59   11.10
  -2   3  -3   91.29   13.80
   2   3   3  114.09   12.00
  -2  -3   3  105.39    9.40
   2  -3  -3  104.09    9.30
   2  -3  -3  112.19    9.70
  -2   3   3   94.99   10.40
   2   3  -3  107.79   12.80
   2  -3   3  112.89   10.70
  -2  -3  -3  109.59   10.40
   2  -3   3  108.49   10.60
   2  -3   3  108.79   10.00
  -2   3   3  120.19   10.10
  -2   4  -3   42.50    5.00
   2   4   3   77.29   10.90
  -2  -4   3   54.09    5.80
  -2   4  -3   35.20    4.90
   2  -4  -3   48.60    5.10
   2  -4  -3   52.49    6.40
   2  -4  -3   71.69    8.60
  -2  -4   3   49.10    8.20
  -2   4   3   60.49    6.90
   2  -4   3   49.40    7.20
  -2  -4  -3   67.59    6.80
   2  -4   3   55.39    6.60
  -2  -4  -3   63.89    6.50
   2   4  -3   46.50   10.20
  -2   4   3   63.99    6.30
  -2  -4  -3   60.69   15.80
  -2  -5   3   71.59    7.60
   2  -5  -3   60.99    7.70
  -2  -5   3   56.19   10.10
   2   5   3   60.79   11.90
  -2   5  -3   73.89   11.60
   2  -5  -3   62.89    6.20
   2  -5  -3   54.29    9.00
  -2  -5  -3   54.89    7.30
   2   5  -3   65.79   12.90
   2  -5   3   65.59    8.80
  -2   5   3   53.39    7.60
  -2  -5  -3   16.50   13.20
  -2  -5  -3   55.69    7.70
  -2   5   3   65.99   13.90
   2  -5   3   57.09    7.70
  -2  -6   3   88.19    9.90
   2   6   3   74.49   14.80
   2  -6  -3   86.19   11.30
  -2  -6   3   80.79   10.90
  -2  -6   3   80.99    9.10
  -2   6  -3   99.69   11.90
  -2   6  -3   61.99   21.00
   2  -6  -3   92.59   10.40
   2  -6  -3   80.09    8.30
  -2   6   3   83.19    8.80
  -2  -6  -3   89.29   10.40
   2  -6   3   90.59   10.60
   2   6  -3   88.69   16.80
  -2   6   3   86.69   16.20
  -2  -6  -3   64.79   16.00
  -2  -6  -3   72.39    9.70
   2  -6   3   74.99   10.60
  -2   7  -3   16.30   18.60
  -2  -7   3    7.20    4.70
  -2  -7   3   17.10    6.60
   2  -7  -3   16.70    7.40
   2  -7  -3   17.20    8.50
  -2  -7   3   13.10    6.60
   2   7   3   12.60   10.90
   2  -7   3   12.50    6.50
  -2   7   3   18.10   12.50
  -2  -7  -3   15.50   11.30
   2   7  -3   28.00   14.10
  -2  -7  -3   10.30    6.10
   2  -7   3   12.10    7.40
  -2  -7  -3   15.60    7.10
  -2  -8   3   63.19   11.80
   2  -8  -3  107.09   13.40
   2  -8  -3  137.99   16.00
  -2   8  -3  103.79   24.50
  -2  -8   3  131.79   12.80
   2   8   3   81.09   18.00
   2  -8   3   90.89   13.00
   2  -8   3   91.29   13.40
  -2  -8  -3   90.59   16.30
  -2   8   3   98.19   19.50
  -2  -8  -3  106.59   13.20
   2   8  -3   86.59   19.80
  -2   9  -3   12.90   22.00
   2  -9  -3    2.40    8.80
   2  -9  -3   11.50   10.10
  -2  -9   3    4.70    8.50
   2   9   3    6.70   16.30
   2  -9   3   13.90    9.60
   2   9  -3   20.20   19.30
   2  -9   3    0.50    9.30
  -2  -9  -3   -5.90    8.70
  -2   9   3   13.70   15.10
  -2  -9  -3    7.10   11.10
  -2 -10   3   13.10   19.90
  -2  10  -3   30.10   24.40
  -2 -10   3   18.40   10.80
   2  10   3   19.50   19.70
   2 -10  -3    7.70   12.10
   2 -10  -3   19.20   10.50
   2 -10   3   19.10   12.20
   2  10  -3   29.30   22.90
  -2 -10  -3   15.90   11.30
  -2  10   3   26.40   18.50
   3   0  -3   -6.80    5.00
  -3   0  -3    1.10    3.80
   3   0  -3    0.70    3.00
  -3   0   3   -1.30    3.30
  -3   0  -3    3.80    2.20
   3   0   3   -4.30    3.80
   3   0   3   -1.10    2.90
  -3   0   3   -1.40    1.10
   3   0  -3    0.10    1.90
  -3   0   3   -5.10    5.60
  -3   0   3   -1.90    2.90
  -3   0  -3   -0.30    2.30
   3   1   3 1562.04  120.89
   3  -1  -3 1481.45  120.49
  -3  -1   3 1418.26  123.59
  -3  -1   3 1573.64  121.39
   3  -1  -3 1560.04  121.69
  -3   1  -3 1625.94  121.59
  -3   1  -3 1471.25  120.89
  -3   1  -3 1493.05  120.79
  -3  -1   3 1416.66  120.39
   3  -1   3 1687.03  121.79
  -3   1   3 1448.76  121.09
  -3  -1  -3 1539.85  122.09
   3  -1   3 1613.74  120.99
  -3   1   3 1538.55  122.19
  -3   1   3 1550.54  120.49
   3   1  -3 1482.85  122.59
  -3  -1  -3 1466.55  121.39
  -3  -2   3   77.09    6.40
  -3  -2   3   71.69    9.40
   3  -2  -3   77.09    8.70
   3  -2  -3   68.59    6.90
  -3  -2   3   72.39    7.60
  -3   2  -3   75.99    8.40
  -3   2   3   67.79    7.40
   3  -2   3   71.89    8.20
   3   2  -3   64.59    9.60
  -3   2   3   74.49    8.50
   3  -2   3   66.09    7.70
  -3  -2  -3   90.19    8.80
   3  -2   3   73.59    7.30
  -3  -2  -3   77.99    8.30
  -3   2   3   68.29    6.70
  -3   3  -3   88.19   10.70
   3  -3  -3   92.99    8.30
  -3  -3   3   84.39    7.90
   3   3   3   93.09   11.70
   3  -3  -3   92.09   10.00
  -3  -3   3   81.99   10.40
   3  -3   3   87.59    8.50
  -3   3   3   84.19    8.60
  -3  -3  -3   87.09    9.90
  -3  -3  -3   76.39    9.70
   3  -3   3   94.39    9.70
   3   3  -3   89.39   12.20
   3  -4  -3   64.09    7.00
   3  -4  -3   67.49    9.00
   3   4   3   62.89   11.20
  -3   4  -3   37.30   11.70
   3  -4  -3   66.69    6.50
  -3  -4   3   67.89   10.20
  -3  -4   3   62.19    6.50
  -3   4   3   51.79    9.70
   3  -4   3   64.19    7.30
  -3  -4  -3   60.49    8.00
   3   4  -3   61.49   11.90
  -3  -4  -3   59.69    7.10
   3  -4   3   56.39    8.20
  -3   5  -3 1460.75  105.49
   3  -5  -3 1422.76  105.39
   3   5   3 1363.56  109.39
   3  -5  -3 1357.56  107.49
   3  -5  -3 1424.66  106.09
  -3  -5   3 1311.77  107.99
  -3  -5   3 1315.47  105.59
  -3   5   3 1173.88  106.29
   3  -5   3 1320.77  105.99
   3   5  -3 1240.28  109.69
  -3  -5  -3 1416.16  106.79
   3  -5   3 1226.58  106.79
  -3  -5  -3 1332.07  105.89
  -3  -5  -3 1139.19  113.99
   3  -6  -3   96.19   10.50
  -3  -6   3  113.29   15.70
  -3  -6   3   92.59   16.00
   3   6   3   98.39   17.30
  -3   6  -3   85.29    7.80
  -3  -6   3   79.69    9.90
  -3   6  -3  119.49   16.70
   3  -6  -3   90.09   13.20
  -3  -6  -3   84.69   10.00
  -3  -6  -3   56.69   22.50
  -3   6   3  110.59   21.80
   3   6  -3  104.49   18.20
   3  -6   3   81.69   12.10
  -3  -6  -3   97.09   11.40
   3  -6   3  103.19   11.30
  -3  -7   3  143.19   19.50
  -3  -7   3  122.59   13.50
  -3  -7   3  129.89   13.90
  -3  -7   3  125.99   16.90
   3   7   3  137.09   22.00
   3  -7  -3  132.49   14.10
   3  -7  -3  139.19   16.20
  -3   7  -3   97.19   31.90
  -3   7  -3  146.59   16.40
  -3  -7  -3  133.49   14.70
  -3  -7  -3  124.69   25.10
  -3  -7  -3  119.49   14.20
   3   7  -3  134.89   22.20
  -3   7   3  143.69   23.90
   3  -7   3  128.19   14.70
   3  -7   3  121.69   15.60
  -3  -8   3    3.20    7.90
  -3  -8   3    1.20   12.00
  -3   8  -3    6.80   23.10
  -3  -8   3   -2.40    7.00
   3   8   3   -3.90   14.50
   3  -8  -3   -2.60    8.20
   3  -8  -3    4.40    9.60
  -3  -8  -3    1.50    7.90
   3  -8   3    5.80    7.80
  -3   8   3   -5.50   14.00
   3  -8   3   -0.80    8.10
   3   8  -3   27.50   17.80
  -3  -8  -3   12.40   14.50
   3  -9  -3  138.39   20.10
  -3  -9   3  159.38   17.40
   3   9   3  133.99   26.90
  -3   9  -3  130.79   33.50
   3  -9  -3  141.39   16.80
  -3  -9   3  143.59   25.60
   3  -9   3  175.68   19.30
  -3  -9  -3  170.28   24.30
   3   9  -3  148.59   28.50
   3  -9   3  131.59   18.70
  -3  -9  -3  156.38   18.80
  -3   9   3  133.09   27.40
  -3  10  -3   -7.90   25.90
  -3 -10   3  -16.10   18.00
   3 -10  -3    3.40    9.90
  -3 -10   3    3.60    9.80
   3 -10  -3    1.10   12.30
   3  10   3   -6.10   19.20
   3 -10   3   -4.30   10.70
   3  10  -3    9.20   22.50
  -3 -10  -3   -0.80   10.90
  -4   0   3    7.00    2.00
  -4   0  -3   41.60    6.50
   4   0  -3    2.40    3.80
  -4   0   3   12.60    7.20
   4   0  -3   15.30    4.70
  -4   1  -3  195.18   16.80
   4   1   3  194.38   16.70
  -4   1  -3  184.68   17.40
   4  -1  -3  186.78   17.70
  -4  -1   3  196.68   15.60
   4  -1  -3  188.98   15.90
  -4   1   3  208.98   19.20
   4  -1   3  147.39   19.70
   4  -1   3  199.58   16.70
  -4   1   3  190.98   15.80
  -4  -1  -3  193.18   17.60
  -4   1   3  201.38   17.30
  -4   2  -3   50.79    8.20
  -4  -2   3   44.80   10.50
   4  -2  -3   53.89    5.80
   4  -2  -3   46.60    8.00
  -4  -2  -3   62.49    8.50
   4   2  -3   52.09    9.90
   4  -2   3   39.60    7.50
   4  -2   3   50.59    6.40
  -4   2   3   47.00    7.70
  -4   2   3   53.99    6.90
  -4  -2  -3   53.49    8.90
   4  -3  -3  183.98   17.50
  -4   3  -3  168.38   16.40
  -4  -3   3  169.38   17.90
  -4  -3   3  168.08   14.30
   4  -3  -3  176.08   15.00
  -4   3   3  171.18   16.80
   4  -3   3  178.58   15.10
  -4  -3  -3  174.58   16.90
   4   3  -3  174.78   19.10
  -4  -3  -3  146.09   16.10
   4  -3   3  178.38   17.00
  -4   3   3  167.38   15.40
  -4  -4   3   44.50    9.90
  -4   4  -3   64.09   11.40
  -4  -4   3   49.20    6.40
   4   4   3   57.49   12.00
   4  -4  -3   83.59    7.90
   4  -4  -3   56.19    9.70
   4  -4   3   43.10    8.80
   4  -4   3   56.69    8.00
  -4   4   3   67.49    9.00
   4   4  -3   59.19   12.50
  -4  -4  -3   73.29   10.00
  -4  -4  -3   51.79    9.30
  -4   5  -3   40.20   14.70
  -4  -5   3   71.19   12.70
  -4  -5   3   58.09    7.60
   4  -5  -3   53.69    7.60
   4   5   3   65.09   13.70
   4  -5  -3   68.09   11.70
   4  -5  -3   65.89    8.80
   4  -5   3   65.49   10.50
   4   5  -3   62.69   14.30
  -4  -5  -3   66.69    8.50
   4  -5   3   80.59    9.20
  -4  -5  -3   63.69   11.30
  -4  -5  -3   64.39    9.70
  -4  -6   3   -6.40   14.30
   4  -6  -3   47.20    9.60
  -4   6  -3   18.70    4.80
  -4   6  -3  -12.60   12.30
  -4  -6   3   16.80   10.00
   4   6   3   45.40   14.40
   4  -6  -3   37.90    7.70
  -4  -6   3   29.00    6.20
  -4  -6  -3   53.69    9.10
   4  -6   3   35.20    7.90
  -4   6   3   52.19    9.00
  -4  -6  -3   22.40   20.80
   4   6  -3   50.49   15.60
  -4  -6  -3   35.40   11.20
  -4  -6  -3   34.70    7.00
   4  -6   3   29.60    9.00
  -4  -7   3   22.90    7.10
  -4  -7   3   17.90   13.40
   4  -7  -3   38.40   10.60
   4  -7  -3   40.60    9.10
   4   7   3   21.00   13.60
  -4  -7   3   28.60   12.40
  -4   7  -3   38.10   14.00
   4  -7   3   27.00    8.80
  -4   7   3   22.10   20.20
   4  -7   3   34.00   10.50
   4   7  -3   32.10   15.60
  -4  -7  -3   -1.80   19.70
  -4  -7  -3   16.20    8.20
  -4  -7  -3   18.50   12.60
  -4  -7  -3   20.70    7.70
   4  -8  -3   33.50   10.10
  -4  -8   3   36.60    8.90
   4   8   3   26.80   17.50
  -4   8  -3   28.50   30.30
   4  -8  -3   36.80   12.90
  -4  -8   3   27.40   16.00
  -4  -8  -3   46.00   10.20
  -4  -8  -3   32.10   15.70
  -4  -8  -3    4.10   18.90
   4  -8   3   27.90   11.30
   4  -8   3   27.40    9.30
  -4  -8  -3   37.80   11.60
   4   8  -3   47.30   18.80
  -4   8   3   40.00   19.70
   4  -9  -3    7.40   11.00
  -4  -9   3   13.00   17.30
   4   9   3   13.40   16.60
  -4  -9   3   10.50    8.30
  -4   9  -3    1.70   28.40
   4  -9  -3   17.40   10.90
  -4  -9  -3    5.90   10.30
   4   9  -3    4.60   18.20
  -4  -9  -3    7.90   17.90
   4  -9   3   17.20   10.90
   4  -9   3   12.70   11.10
  -4  -9  -3   22.70   13.00
  -4   9   3   13.00   18.60
  -4  -9  -3   -2.20   15.50
   4 -10  -3   34.30   11.40
   4 -10  -3   25.90   15.60
  -4  10  -3   21.70   27.40
  -4 -10   3   31.40   11.10
   4  10   3   15.20   22.10
  -4 -10   3   31.50   21.20
  -4 -10  -3   27.90   20.30
   4 -10   3   25.70   13.20
   4  10  -3   28.10   21.90
  -4 -10  -3   30.40   12.50
  -5   0  -3   11.10    4.40
  -5   0  -3    8.10    6.00
   5   0   3    7.90    4.80
   5   0  -3    4.50    5.40
  -5   0   3    1.70    2.20
  -5   0   3    6.20    8.60
  -5   0   3    2.30    6.10
  -5   1  -3  398.56   31.70
   5   1   3  347.17   30.20
  -5  -1   3  342.27   29.10
   5  -1  -3  370.86   29.90
   5  -1  -3  369.76   31.60
  -5   1  -3  362.66   30.40
  -5  -1  -3  344.07   31.30
   5  -1   3  414.96   30.70
  -5   1   3  394.76   32.70
  -5   1   3  368.26   31.10
  -5  -1  -3  289.77   32.50
   5  -2  -3   43.20    5.60
   5  -2  -3   43.60    8.40
  -5  -2   3   25.00   12.80
  -5   2  -3   31.30    8.00
  -5  -2   3   44.40    5.20
  -5  -2  -3   35.70    8.10
   5  -2   3   38.60    6.20
  -5   2   3   44.60    8.30
   5  -2   3   35.70    8.40
  -5   2   3   32.60    7.30
  -5  -2  -3   16.70   10.10
  -5   3  -3 1539.25  119.89
   5  -3  -3 1488.25  120.49
   5  -3  -3 1525.75  118.59
  -5  -3   3 1487.65  122.69
  -5  -3   3 1427.46  117.99
   5  -3   3 1518.85  120.39
  -5   3   3 1436.16  119.29
  -5  -3  -3 1579.04  121.59
  -5   3   3 1438.86  120.19
  -5  -3  -3 1585.74  120.19
   5  -3   3 1437.36  118.79
   5   3  -3 1434.96  122.29
   5  -4  -3    2.90    7.10
  -5  -4   3    3.10    3.60
   5  -4  -3    3.10    4.50
  -5  -4   3    8.10    9.20
  -5   4  -3    5.20    7.40
  -5  -4  -3   -0.40    6.80
   5  -4   3    1.40    4.70
   5   4  -3    6.90   10.60
  -5   4   3    0.40    5.90
   5  -4   3    0.80    6.40
  -5  -4  -3    1.20    7.40
   5  -5  -3   37.10    7.50
  -5  -5   3   55.89    6.80
  -5  -5   3   35.50   12.30
   5   5   3   46.30   15.00
   5  -5  -3   46.90   10.80
  -5   5  -3   31.40   13.70
   5  -5   3   55.09   11.10
  -5  -5  -3   40.70   10.60
  -5   5   3   31.80   11.40
   5   5  -3   45.00   15.10
  -5  -5  -3   36.40    7.60
  -5  -5  -3   49.70   10.90
   5  -5   3   37.90    7.80
   5  -6  -3    5.80    8.90
  -5  -6   3    5.60   10.10
  -5   6  -3   16.40   12.30
  -5  -6   3    8.30    5.70
   5  -6  -3    3.90    6.70
   5   6   3   14.70   12.70
   5  -6   3   11.40    7.50
   5   6  -3   13.80   14.40
  -5  -6  -3    7.70   10.10
   5  -6   3   10.60    9.40
  -5  -6  -3    5.60    8.80
  -5  -6  -3    5.20    7.30
  -5  -6  -3    3.70    6.40
  -5  -6  -3  -13.20   20.10
   5   7   3  481.25   45.60
   5  -7  -3  452.45   38.40
   5  -7  -3  462.05   41.10
  -5  -7   3  456.45   43.40
  -5  -7   3  457.65   37.70
   5  -7   3  463.45   38.80
  -5  -7  -3  468.65   38.20
  -5  -7  -3  423.16   43.30
  -5  -7  -3  456.55   39.60
   5   7  -3  471.35   47.90
  -5  -7  -3  435.16   40.00
  -5  -7  -3  314.87   51.19
   5  -7   3  414.86   39.90
   5   8   3   14.40   18.30
  -5  -8   3   10.90    8.30
  -5   8  -3  -43.40   32.00
   5  -8  -3   11.20   12.40
   5  -8  -3   20.40    9.90
  -5  -8   3    2.20   15.70
  -5   8   3    2.70   21.50
  -5  -8  -3    5.20   11.70
  -5  -8  -3   23.80   16.00
   5  -8   3   15.40    9.90
  -5  -8  -3   -5.30   22.20
  -5  -8  -3    6.30    9.60
   5   8  -3   18.40   17.30
   5  -8   3   12.80   11.40
   5  -9  -3  158.18   18.50
  -5  -9   3  125.49   17.20
   5   9   3  120.89   28.50
  -5  -9   3  111.59   25.80
   5  -9  -3  116.09   21.40
  -5   9  -3  114.89   40.40
  -5  -9  -3  150.58   19.10
   5   9  -3  142.69   30.90
   5  -9   3  129.19   19.60
   5  -9   3  127.59   17.30
  -5  -9  -3  100.79   20.90
  -5  -9  -3  136.69   26.00
  -6   0   3   51.69   13.00
  -6   0  -3   87.99   10.50
  -6   0  -3   73.59   11.60
  -6  -1   3  206.88   20.60
   6  -1  -3  189.58   19.90
  -6   1  -3  191.28   18.40
  -6   1  -3  203.38   20.20
   6  -1  -3  196.48   18.20
  -6  -1   3  186.18   16.40
  -6  -1  -3  189.88   19.70
   6  -1   3  207.08   19.50
  -6   1   3  194.68   19.70
  -6   1   3  210.68   21.40
  -6  -1  -3  214.78   21.60
   6  -2  -3   21.40    8.20
  -6  -2   3   14.70    3.60
  -6   2  -3   19.60    7.60
   6  -2  -3   20.90    5.40
  -6  -2   3    6.70   12.10
  -6   2   3   25.80    8.00
   6  -2   3   17.20    6.00
  -6  -2  -3   20.20    9.40
  -6  -2  -3   35.10    9.60
  -6   2   3   27.10    8.20
  -6   3  -3  100.19   13.70
   6  -3  -3   96.69   13.80
  -6  -3   3   67.89   18.70
   6  -3  -3   81.99    9.90
  -6  -3  -3  107.59   14.70
   6  -3   3   89.29   10.80
   6  -3   3   80.09   13.10
  -6  -3  -3   68.89   16.70
  -6   3   3   88.29   13.40
  -6   3   3   89.69   12.30
   6  -4  -3   43.30   11.10
   6  -4  -3   27.40    6.60
  -6   4  -3   25.50    9.60
  -6  -4   3   26.30    5.10
  -6  -4   3   23.80   13.00
  -6  -4  -3   27.30   12.00
  -6   4   3   27.60    8.20
   6   4  -3   33.10   12.60
   6  -4   3   19.00    6.30
   6  -4   3   23.50    9.10
  -6  -4  -3   53.19   11.00
  -6   5  -3   59.19   14.80
  -6  -5   3   32.10   13.50
  -6  -5   3   47.40    7.40
   6  -5  -3   60.39   12.60
   6  -5  -3   60.79    9.20
  -6   5   3   57.09   12.60
  -6  -5  -3   39.40   13.10
   6  -5   3   53.29    9.40
   6  -5   3   48.50   11.50
   6   5  -3   50.69   16.50
  -6  -5  -3   58.69    8.70
  -6  -5  -3   49.80   11.40
   6  -6  -3   49.60    9.70
   6  -6  -3   46.50   12.50
  -6  -6   3   26.80   13.70
  -6   6  -3   45.30   18.50
  -6  -6   3   40.60    7.80
  -6  -6  -3   78.09   13.10
  -6  -6  -3   61.89    9.70
   6  -6   3   49.20    9.40
  -6  -6  -3   75.19   13.60
   6  -6   3   40.70   12.50
  -6  -6  -3   51.89   15.10
   6   6  -3   44.00   17.00
  -6  -7   3  -16.70   19.50
   6  -7  -3   22.50   13.20
  -6  -7   3   13.20    8.10
   6  -7  -3   19.20    9.00
  -6  -7   3    5.90   15.10
   6  -7   3   22.30    9.60
  -6  -7  -3   21.00   12.30
   6   7  -3   14.60   19.70
  -6  -7  -3    9.70   13.60
   6  -7   3   11.20   11.60
  -6  -7  -3   -1.80    9.10
  -6  -7  -3   13.20    8.80
  -6  -7  -3   28.20   25.80
   6  -8  -3    2.50    8.40
  -6  -8   3    7.30   15.60
   6   8   3   13.50   20.40
   6  -8  -3   14.90   14.10
   6  -8   3    7.10   11.80
  -6  -8  -3   10.60   13.90
   6  -8   3    7.60   10.50
  -6   8   3   21.80   27.40
  -6  -8  -3    9.60   10.10
   6   8  -3    1.50   18.40
  -6  -8  -3   23.60   23.40
  -6  -8  -3   26.00   16.90
   6   9   3    9.70   22.60
   6  -9  -3   16.90   15.30
  -6   9  -3   -4.60   41.90
   6  -9  -3   14.20   11.60
  -6  -9   3    3.10   17.60
   6   9  -3    5.20   20.50
  -6  -9  -3   11.20   18.30
  -6  -9  -3    4.70   14.60
   6  -9   3    9.50   12.10
   6  -9   3    0.00   13.50
  -6  -9  -3   11.70   11.30
  -7   0  -3    9.40    6.40
  -7   0   3   15.80   11.40
  -7   0   3    4.70    9.30
  -7   0  -3    6.10    8.80
  -7  -1   3  592.74   49.70
  -7  -1   3  547.45   55.49
  -7   1  -3  588.04   49.80
   7  -1  -3  465.85   48.70
  -7   1  -3  587.14   48.30
  -7  -1  -3  619.24   49.99
  -7   1   3  593.64   50.89
  -7  -1  -3  596.14   49.60
   7  -1   3  525.85   49.99
  -7   1   3  606.34   49.60
  -7  -2   3   -3.90   15.00
  -7   2  -3   38.70   11.40
  -7  -2   3   40.10   12.10
   7  -2  -3   42.90    8.40
   7  -2  -3   57.79   11.70
  -7  -2  -3   53.29   14.40
   7  -2   3   53.69    9.90
  -7   2   3   54.09   11.30
  -7  -2  -3   36.80   11.90
  -7   2   3   49.40   11.20
  -7  -3   3  185.48   21.10
  -7   3  -3  158.38   18.90
   7  -3  -3  156.08   16.10
   7  -3  -3  169.28   19.60
  -7   3   3  168.78   19.90
  -7   3   3  164.48   18.30
  -7  -3  -3  176.98   20.20
   7  -3   3  151.38   16.50
  -7   4  -3  122.09   16.80
  -7  -4   3  133.79   18.30
   7  -4  -3  109.89   12.50
   7  -4  -3  119.29   17.20
  -7  -4   3   88.19   23.00
  -7  -4   3   92.69   10.90
  -7  -4  -3   58.39   18.80
   7  -4   3  107.49   13.10
   7  -4   3  100.79   16.30
  -7   4   3  108.69   15.10
  -7  -4  -3  116.69   17.50
  -7  -5   3  468.75   49.50
  -7   5  -3  456.75   44.50
   7  -5  -3  492.55   43.90
   7  -5  -3  455.35   40.50
  -7   5   3  480.65   43.50
  -7  -5  -3  492.75   43.00
   7  -5   3  550.74   44.80
  -7  -5  -3  424.66   46.70
   7  -5   3  486.25   40.90
  -7  -6   3   17.40   15.50
  -7   6  -3   30.70   17.30
   7  -6  -3   15.50    8.20
   7  -6  -3   -1.70   12.00
  -7  -6  -3    6.00   12.50
  -7  -6  -3    3.60   13.70
  -7  -6  -3   17.10    7.90
  -7  -6  -3   18.40   13.00
   7  -6   3   16.70    9.00
   7  -6   3   11.70   11.20
  -7  -7   3   52.29   21.00
   7  -7  -3   69.99   12.60
   7  -7  -3   65.19   16.20
  -7  -7  -3   51.59   19.90
   7  -7   3   81.89   13.60
   7   7  -3   86.09   23.90
  -7  -7  -3   88.79   12.40
   7  -7   3   68.99   15.90
  -7  -7  -3   63.39   16.50
  -7  -7  -3   92.99   18.20
  -7  -7  -3   64.69   27.30
   7  -8  -3    4.60   10.40
   7  -8  -3    1.80   15.50
  -7  -8   3   18.40   20.50
   7   8  -3   16.00   21.60
  -7  -8  -3   11.60   16.00
   7  -8   3   -5.10   13.80
   7  -8   3    8.30   10.90
  -7  -8  -3    2.10   16.80
  -7  -8  -3   68.99   23.10
  -8   0   3   23.20   12.30
  -8   0  -3    2.60    7.30
  -8   0   3   13.30   10.40
  -8   0  -3   13.70   11.70
  -8   1  -3   93.59   16.30
  -8   1  -3   67.29   11.70
  -8  -1   3   74.99   20.10
  -8  -1   3   76.89   16.00
  -8   1   3   75.59   14.60
  -8  -1  -3   83.89   16.30
  -8  -1  -3   66.59   12.70
  -8   1   3   73.29   14.90
   8  -2  -3   45.20   11.60
   8  -2  -3   64.29   14.10
  -8  -2   3   85.09   16.40
  -8  -2   3   16.30   18.80
  -8   2  -3  103.79   16.10
  -8   2   3   76.09   13.80
   8  -2   3   73.49   13.80
  -8   2   3   77.29   14.30
  -8  -2  -3  101.69   15.80
  -8  -2  -3   75.59   15.90
  -8  -3   3    0.40   16.40
  -8   3  -3   33.90   12.20
  -8  -3   3   28.00   13.30
   8  -3  -3   60.29   14.90
   8  -3  -3   36.90    9.20
  -8  -3  -3   57.69   15.30
  -8   3   3   50.39   12.70
  -8  -3  -3   30.90   14.80
   8  -3   3   60.49   11.10
  -8   3   3   55.39   13.40
   8  -4  -3   19.90    8.40
  -8  -4   3   10.40   16.20
  -8   4  -3   20.50   12.00
  -8  -4   3   29.50   15.50
   8  -4  -3   18.40   11.80
  -8   4   3   20.20   11.30
   8  -4   3   23.50    8.90
  -8  -4  -3   29.30   13.10
  -8  -4  -3   59.89   15.40
  -8  -5   3   23.90   19.80
   8  -5  -3   15.90   12.30
  -8  -5   3   18.90   17.20
  -8   5  -3   26.90   13.60
   8  -5  -3   23.00    8.60
  -8  -5  -3    2.10   14.40
   8  -5   3   13.70    9.20
  -8   5   3   10.00   18.00
  -8  -5  -3    5.10   14.10
  -8  -6   3   29.60   20.70
   8  -6  -3    2.60    8.50
   8  -6  -3   14.80   13.10
  -8  -6   3   15.20   15.40
  -8  -6  -3   11.40   14.90
  -8  -6  -3    9.10   18.70
   8  -6   3    7.30   12.20
  -8  -6  -3    8.20   15.50
   8  -6   3   13.60    9.20
   8  -7  -3    2.40   15.30
   8  -7  -3    3.80    9.60
  -8  -7   3   37.30   22.70
  -8  -7   3    5.70   16.50
  -8  -7  -3   -2.20   16.70
  -8  -7  -3  -19.70   12.70
   8  -7   3   24.50   10.70
   8  -7   3    0.70   12.50
  -9   0  -3    3.80   13.40
  -9   0   3   -1.00   13.50
  -9   0   3    3.80   12.80
  -9  -1   3  293.67   32.30
  -9  -1   3  292.87   36.80
  -9   1  -3  259.17   31.00
  -9   1   3  291.37   31.10
  -9  -1  -3  300.67   30.10
  -9   1   3  281.47   29.10
  -9  -2   3   33.50   16.60
  -9   2  -3   40.50   15.30
  -9  -2   3   41.80   22.30
  -9  -2  -3   38.90   14.60
  -9   2   3   28.70   14.20
  -9   2   3   35.30   13.10
  -9   3  -3  206.88   25.00
  -9  -3   3  219.78   25.80
   9  -3   3  226.38   24.80
  -9   3   3  199.88   25.90
  -9  -3  -3  199.08   26.80
  -9   3   3  194.88   24.60
   9  -4  -3   43.30   10.70
  -9  -4   3   12.70   18.70
   9  -4  -3   42.70   15.10
  -9  -4   3   45.20   19.40
  -9   4  -3   38.70   14.80
  -9  -4  -3   47.20   18.50
  -9   4   3   40.30   14.60
   9  -4   3   41.00   11.80
  -9  -5   3  170.38   28.10
  -9  -5   3   90.19   24.30
  -9   5  -3  185.48   25.30
   9  -5  -3  150.68   18.20
   9  -5  -3  139.99   22.90
   9  -5   3  121.59   17.80
  -9  -5  -3  156.88   25.10
  -9  -6   3   22.30   18.00
   9  -6  -3   26.80   11.10
  -9  -6   3   54.69   22.80
   9  -6  -3   40.80   16.60
  -9  -6  -3   13.80   17.50
   9  -6   3   47.30   12.60
  -9  -6  -3   20.90   15.60
 -10   0   3   69.59   19.40
 -10   0  -3   83.59   18.20
 -10   0   3   68.99   19.00
 -10   1  -3   17.20   16.00
 -10  -1   3    7.10   14.90
 -10   1   3   25.20   14.00
 -10  -1  -3   27.10   18.00
 -10   1   3   19.10   13.70
 -10  -2   3   26.50   18.00
 -10   2  -3   14.60   13.90
 -10   2   3   12.00   14.90
 -10   2   3   13.50   13.20
 -10  -2  -3   20.00   18.10
 -10  -3   3   -3.40   15.60
 -10   3  -3   15.10   15.60
 -10   3   3    6.70   14.20
 -10  -3  -3    0.20   18.60
  10  -3   3   48.70   18.70
 -10   4  -3   32.70   16.90
 -10  -4   3   35.20   21.80
  10  -4   3   48.20   13.90
 -10  -4  -3   42.60   17.60
 -11   0  -3    1.60   18.80
 -11   0   3    2.60   15.50
 -11   1  -3  110.69   24.60
 -11  -1   3  120.39   27.20
 -11   1   3   99.49   23.10
 -11  -1  -3  133.69   28.60
   0   0  -4  778.02   65.89
   0   0   4  767.12   65.79
   0   0  -4  810.22   65.89
   0   0  -4  889.61   66.29
   0   0   4  894.31   66.19
   0   0   4  792.22   66.09
   0   1  -4    2.50    2.00
   0  -1  -4    1.30    1.40
   0   1   4   -1.40    2.50
   0  -1   4    1.90    1.70
   0  -1   4    1.60    2.40
   0  -1  -4   -1.20    2.60
   0   1  -4    0.70    0.90
   0   1  -4   -3.60    4.00
   0   1   4    1.20    1.40
   0  -1   4    1.10    1.10
   0   1   4    0.80    1.00
   0  -1  -4    1.20    1.00
   0   1   4    2.80    2.70
   0  -1  -4    0.00    1.20
   0   1  -4   -0.30    3.10
   0  -1   4    0.50    1.50
   0  -1  -4   -0.80    3.30
   0   2  -4  547.05   42.70
   0   2   4  497.15   43.10
   0  -2  -4  589.94   43.90
   0  -2  -4  537.85   42.80
   0   2  -4  549.35   46.40
   0   2   4  615.74   43.70
   0   2  -4  527.35   42.60
   0   2  -4  539.75   42.70
   0   2   4  461.15   44.90
   0  -2  -4  538.75   44.80
   0  -2   4  502.75   43.70
   0  -2   4  495.75   42.70
   0   2  -4  574.94   43.80
   0  -2  -4  533.65   42.50
   0   3  -4   -1.90    6.30
   0  -3   4   -1.90    2.10
   0  -3   4    0.80    1.60
   0  -3   4    4.10    3.70
   0  -3  -4    5.10    4.60
   0  -3   4    1.70    1.70
   0   3   4    0.90    3.00
   0  -3  -4   -4.60    3.40
   0  -3  -4   -2.20    2.10
   0   3   4   -0.60    2.00
   0  -3  -4   -1.80    4.40
   0   3  -4   -2.20    3.00
   0  -4   4  262.27   21.10
   0  -4  -4  258.37   21.30
   0  -4   4  236.78   21.00
   0   4   4  231.18   22.80
   0  -4  -4  290.47   24.00
   0   4  -4  261.77   26.50
   0   4   4  246.98   21.10
   0  -4  -4  253.87   21.00
   0  -5   4   -1.60    3.10
   0  -5  -4  -11.90    4.20
   0  -5   4    3.20    4.10
   0  -5  -4   -3.40    4.00
   0   5  -4    4.30   10.40
   0  -5  -4    1.50    4.10
   0  -5  -4   10.60    6.50
   0   5   4    0.00    5.60
   0   5  -4   12.40    6.30
   0   6  -4  563.04   52.59
   0  -6  -4  577.94   45.90
   0  -6   4  550.24   45.60
   0  -6  -4  578.14   45.90
   0  -6   4  536.65   45.80
   0  -6  -4  590.54   48.00
   0   6   4  519.35   48.30
   0  -7  -4    3.10    3.00
   0   7   4    0.90    9.40
   0   7  -4   14.00   14.60
   0  -7  -4    5.70    7.80
   0  -7  -4   -2.10    6.40
   0  -7   4   -1.80    6.10
   0  -7   4   -0.70    4.90
   0   8  -4   27.50   16.20
   0  -8   4   17.50    7.40
   0  -8  -4   26.60    9.30
   0  -8   4   22.80    7.50
   0  -8  -4   25.00    7.90
   0   8   4   25.20   13.20
   0  -9   4    0.60    8.60
   0  -9  -4   -6.60    9.10
   0   9  -4   -3.40   16.20
   0   9   4    3.90   14.40
   0  -9  -4    4.70    9.50
   0 -10   4  271.57   26.00
   0 -10  -4  264.67   29.30
   0 -10  -4  291.57   27.60
   0  10  -4  294.97   40.40
   0  10   4  255.97   35.50
   1   0   4   94.69    7.90
   1   0  -4   88.59    7.80
  -1   0   4   85.69    7.90
  -1   0  -4   89.59    8.00
   1   0  -4   89.49    8.00
  -1   0  -4   89.09    7.90
   1   0   4   93.79    8.00
   1   0  -4   83.39    7.70
  -1   0   4   88.39    7.70
  -1  -1   4   63.09    6.10
   1  -1  -4   71.79    5.70
  -1  -1   4   68.99    5.70
  -1   1  -4   72.09    7.50
   1  -1  -4   54.89    6.40
  -1  -1   4   69.69    7.30
  -1  -1   4   56.39    5.40
  -1   1  -4   63.39    6.00
   1   1   4   66.79    6.30
  -1  -1   4   66.89    7.10
   1   1   4   66.19    6.20
  -1   1  -4   70.99    6.10
   1  -1  -4   64.79    6.50
   1  -1  -4   63.29    6.20
   1   1  -4   65.49    7.20
  -1  -1  -4   62.69    6.70
   1  -1   4   69.19    6.90
   1   1  -4   72.99    5.70
  -1   1   4   73.89    7.00
   1   1  -4   70.39    5.50
   1  -1   4   64.69    5.90
  -1   1   4   68.19    6.30
   1   1  -4   61.49    6.10
  -1  -1  -4   63.29    6.00
  -1  -1  -4   69.29    6.50
   1  -1   4   70.29    6.10
  -1   1   4   67.99    6.50
  -1  -2   4   26.50    3.10
  -1   2  -4   27.40    3.60
  -1  -2   4   29.80    4.70
   1  -2  -4   28.40    3.40
   1   2   4   33.80    4.20
   1  -2  -4   33.10    4.90
  -1   2  -4   22.70    3.30
  -1  -2   4   29.20    3.40
   1  -2  -4   33.20    3.80
  -1   2  -4    7.90    6.00
   1  -2  -4   25.40    4.30
   1   2   4   29.50    4.70
  -1   2  -4   31.40    3.30
  -1  -2  -4   30.40    4.00
  -1   2   4   33.80    4.80
  -1   2   4   33.90    3.50
  -1   2   4   34.00    5.00
   1   2  -4   32.10    3.20
   1  -2   4   25.70    3.50
   1  -2   4   36.20    6.70
  -1  -2  -4   46.20    9.60
  -1   2   4   34.10    4.50
  -1  -2  -4   34.00    5.00
  -1  -2  -4   28.30    3.80
   1  -2   4   31.80    3.50
   1   2  -4   35.20    6.60
   1   3   4   66.79    8.20
  -1  -3   4   63.49    6.70
  -1   3  -4   33.80    9.20
  -1  -3   4   50.49    5.70
   1  -3  -4   70.09    6.30
  -1   3  -4   71.59    6.50
   1  -3  -4   69.39    7.60
   1  -3  -4   71.09    6.40
  -1  -3   4   54.09    5.80
   1   3  -4   72.39    9.90
  -1  -3  -4   78.29    8.70
   1  -3   4   30.70    8.90
  -1   3   4   44.60    6.90
  -1   3   4   65.99    8.70
  -1  -3  -4   52.99   11.90
   1  -3   4   53.19    6.20
  -1  -3  -4   72.69    6.80
   1   3  -4   56.49    5.80
  -1  -3  -4   61.59    6.10
   1  -3   4   58.49    6.30
  -1   4  -4    5.00    3.40
   1   4   4    5.90    5.30
  -1  -4   4    2.30    2.60
   1  -4  -4    8.80    2.10
  -1   4  -4    8.10    5.50
   1  -4  -4   10.80    4.50
   1  -4  -4    5.70    3.20
   1  -4  -4    5.20    2.40
  -1   4  -4  -11.00    9.90
  -1  -4   4    0.50    1.80
  -1  -4   4    5.50    2.80
   1   4  -4   16.20    7.50
  -1  -4  -4   10.00    3.70
   1  -4   4    3.60    2.90
   1  -4   4    6.90    3.50
  -1   4   4    7.10    5.40
  -1  -4  -4   12.50    3.60
  -1   4   4    2.30    3.80
  -1  -4  -4   -7.60    6.50
   1  -5  -4   35.50    6.10
   1  -5  -4   35.20    4.70
  -1  -5   4   29.50    5.00
  -1   5  -4   50.19    7.90
   1  -5  -4   36.90    4.60
  -1  -5   4   29.30    5.10
  -1  -5   4   22.90    3.60
   1   5   4   33.80    8.60
  -1   5  -4   15.90   12.70
   1  -5  -4   34.00    7.50
  -1  -5  -4   33.80    5.60
   1   5  -4   35.00   11.40
   1  -5   4   33.20    5.70
  -1  -5  -4   36.00    6.30
  -1   5   4   36.70    8.90
  -1   5   4   27.30    4.80
  -1  -5  -4   45.40   11.40
   1  -5   4   27.90    5.40
  -1   6  -4   11.00   12.90
   1  -6  -4   10.80    4.00
  -1  -6   4    2.10    4.20
   1  -6  -4    5.00    2.60
   1  -6  -4   11.10    6.10
   1  -6  -4    6.30    5.60
  -1  -6   4    2.70    1.90
  -1  -6   4    1.90    4.80
   1   6   4    3.20    8.30
  -1  -6   4   -2.90    2.20
  -1  -6  -4   12.10    5.60
  -1  -6  -4    7.40    6.20
   1   6  -4   13.80   10.30
   1  -6   4   -0.30    4.70
  -1  -6  -4   15.90    9.50
  -1   6   4    0.50    2.60
   1  -6   4    2.10    4.80
  -1   6   4    9.10    8.20
   1  -7  -4   53.99    8.70
   1  -7  -4   51.99   10.30
   1   7   4   31.80   10.90
  -1  -7   4   35.40    7.50
  -1  -7   4   22.20    6.70
  -1   7  -4   37.20   18.00
  -1  -7  -4   27.40    8.70
   1   7  -4   44.80   15.50
   1  -7   4   23.60    7.10
   1  -7   4   32.00    7.90
  -1  -7  -4   32.70    7.20
  -1   7   4   35.90   11.50
  -1  -7  -4   53.29   11.20
  -1   8  -4    7.00   16.70
   1  -8  -4    3.90    9.20
   1  -8  -4    3.10    7.80
  -1  -8   4    2.40    6.50
  -1  -8   4    0.90    7.30
   1   8   4    3.60   12.50
  -1   8   4    1.00   11.70
  -1  -8  -4    8.70    7.90
   1   8  -4   13.60   14.40
  -1  -8  -4    0.70    9.00
   1  -8   4   -1.50    7.80
   1  -8   4    2.10    6.80
  -1   9  -4   31.70   19.50
   1  -9  -4   30.70   10.60
   1   9   4   23.30   16.50
   1  -9  -4   30.50    9.50
  -1  -9   4   22.90    8.50
  -1  -9  -4   41.50    9.60
   1  -9   4   18.50    8.80
  -1   9   4   22.10   16.50
  -1  -9  -4   40.00   12.60
   1   9  -4   36.20   20.20
  -1 -10   4    2.70   10.10
   1  10   4   -8.70   17.40
   1 -10  -4    5.80   12.00
   1 -10  -4   -8.00    9.00
  -1  10  -4   14.20   20.10
   1  10  -4   20.50   19.70
  -1 -10  -4    3.80   11.50
  -1 -10  -4    1.00   10.20
   1 -10   4   -5.30   10.30
  -1  10   4   -3.30   17.20
   2   0   4  451.65   37.00
  -2   0   4  446.16   36.60
  -2   0   4  448.26   37.10
  -2   0  -4  470.25   36.80
   2   0  -4  425.06   35.80
  -2   0   4  438.36   35.80
   2   0  -4  453.25   36.70
   2   0   4  480.55   36.10
  -2   0  -4  443.16   35.90
  -2   0  -4  490.15   36.70
  -2  -1   4  381.56   31.40
  -2  -1   4  368.76   31.50
  -2  -1   4  366.56   32.30
  -2  -1   4  390.76   30.60
   2  -1  -4  388.06   31.60
  -2   1  -4  384.76   31.70
  -2  -1   4  425.56   33.20
   2  -1  -4  378.96   30.90
   2  -1  -4  366.56   31.70
   2   1   4  349.47   31.50
  -2   1  -4  412.76   31.80
  -2   1  -4  400.66   31.20
   2  -1  -4  400.16   32.70
  -2   1   4  379.16   30.90
  -2  -1  -4  401.56   31.10
  -2   1   4  390.56   32.50
   2  -1   4  363.56   31.60
  -2   1   4  390.96   31.60
   2  -1   4  390.96   31.20
   2   1  -4  378.96   32.50
   2   1  -4  405.36   32.70
  -2   1   4  379.36   31.80
   2   1  -4  441.66   31.50
  -2  -1  -4  367.66   31.60
   2  -1   4  396.86   31.20
   2  -2  -4  761.52   59.29
   2  -2  -4  752.62   60.29
  -2   2  -4  732.13   59.89
  -2  -2   4  708.73   59.69
   2  -2  -4  788.12   59.79
   2   2   4  687.13   60.69
  -2   2  -4  790.52   60.49
  -2  -2   4  740.23   60.49
  -2  -2   4  804.32   58.99
  -2  -2   4  689.83   59.39
  -2  -2  -4  748.33   59.99
   2  -2   4  729.33   59.39
  -2   2   4  743.33   60.39
  -2  -2  -4  717.93   60.89
  -2   2   4  769.72   59.79
   2  -2   4  785.72   59.89
   2   2  -4  713.53   61.29
  -2   2   4  748.23   59.19
   2  -2   4  771.92   60.09
  -2   2   4  726.83   59.19
  -2  -3   4    9.40    4.40
   2  -3  -4   12.40    4.20
   2   3   4    8.30    4.70
  -2   3  -4    6.70    2.10
   2  -3  -4    7.50    3.10
  -2  -3   4    6.00    2.30
  -2   3  -4   -3.40    6.30
  -2   3  -4    3.00    2.60
   2  -3  -4    9.00    2.80
  -2  -3   4    3.90    2.30
  -2  -3  -4    9.70    3.80
   2  -3   4    5.40    3.30
   2  -3   4    8.50    3.00
  -2   3   4    3.40    3.00
  -2   3   4    9.70    2.70
   2   3  -4    6.20    5.70
  -2  -3  -4    8.40    3.40
   2   3  -4   11.50    2.30
  -2  -4   4  102.69   10.50
   2  -4  -4  110.79   10.60
   2  -4  -4  117.89    9.60
  -2  -4   4  127.39   13.10
   2  -4  -4  112.99   12.10
   2  -4  -4  117.19   10.60
   2   4   4  137.29   14.30
  -2  -4   4  122.09   10.30
  -2   4  -4  113.59    9.90
  -2  -4  -4  110.49   20.40
   2  -4   4  119.69   11.00
  -2  -4  -4  111.79   10.60
  -2   4   4  119.59   11.70
   2   4  -4  111.09   15.40
  -2  -4  -4  106.79   11.10
   2  -4   4  100.89   11.30
  -2   4   4  115.99    9.90
   2  -5  -4   10.50    5.60
  -2   5  -4    8.80    8.20
  -2  -5   4    5.80    5.10
   2  -5  -4    6.20    2.90
   2  -5  -4    4.40    2.20
  -2   5  -4  -29.80   13.10
  -2  -5   4    2.40    2.90
   2  -5  -4    5.90    4.60
  -2  -5   4    6.10    3.70
  -2  -5   4    6.50    6.50
   2   5   4    3.10    6.90
   2   5  -4   10.00    8.50
   2  -5   4    4.90    4.20
  -2   5   4   -3.40    8.00
  -2  -5  -4    3.00    4.00
  -2  -5  -4   -9.60    9.50
  -2  -5  -4    5.30    4.50
   2  -5   4    6.90    4.60
  -2  -6   4  104.99   11.80
  -2  -6   4  104.19   11.10
  -2   6  -4  131.19   14.40
   2  -6  -4   99.19    9.40
   2   6   4  106.09   16.90
   2  -6  -4  118.39   13.30
  -2  -6   4   98.29   10.30
  -2   6  -4   78.79   26.00
   2  -6  -4  115.89   12.00
  -2  -6  -4  108.79   11.30
   2  -6   4  102.89   11.30
  -2   6   4  108.49   11.40
   2   6  -4  122.69   18.00
  -2  -6  -4  104.39   20.70
  -2  -6  -4  114.69   12.40
  -2   6   4  117.79   17.90
   2  -6   4  103.89   12.10
   2  -7  -4  108.09   14.00
  -2  -7   4   99.89   12.40
   2  -7  -4  129.99   13.70
   2   7   4  101.09   17.20
  -2  -7   4  102.19   11.80
  -2  -7   4   96.99   10.80
  -2   7  -4  108.69   25.60
  -2  -7  -4  115.49   14.20
  -2  -7  -4  104.99   11.80
   2   7  -4  104.89   19.90
   2  -7   4  102.99   13.40
  -2   7   4  122.39   19.60
  -2  -7  -4  113.09   19.70
   2  -7   4  108.69   12.80
  -2  -8   4  435.16   41.50
  -2  -8   4  401.66   35.90
   2   8   4  463.45   43.90
   2  -8  -4  424.96   36.30
  -2  -8   4  410.16   36.70
  -2   8  -4  432.66   49.10
   2  -8  -4  422.36   38.30
  -2  -8  -4  428.36   36.20
  -2   8   4  422.56   42.10
   2   8  -4  419.26   44.10
  -2  -8  -4  403.06   40.90
   2  -8   4  429.46   37.40
   2  -8   4  422.06   36.70
   2  -9  -4   16.10   10.00
   2  -9  -4   21.40   11.50
  -2  -9   4    9.30    9.00
  -2   9  -4   16.90   21.30
  -2  -9   4    6.90   16.90
   2   9   4   17.40   17.20
   2  -9   4   13.70    9.90
  -2  -9  -4   24.80   13.20
   2  -9   4    6.80    9.30
   2   9  -4   32.70   20.50
  -2   9   4    5.00   14.60
  -2  -9  -4   13.00    9.80
  -2 -10   4   51.79   12.40
   2 -10  -4   60.99   13.70
  -2 -10   4   51.19   20.60
  -2  10  -4   34.90   26.10
   2 -10  -4   37.70   14.10
   2  10   4   42.20   21.50
   2 -10   4   44.10   11.90
  -2 -10  -4   48.60   13.70
   2  10  -4   52.99   22.50
   3   0   4  184.28   18.10
  -3   0   4  182.08   16.20
  -3   0   4  193.58   18.40
   3   0   4  218.28   17.30
  -3   0   4  214.08   17.80
   3   0  -4  207.98   17.70
  -3   0  -4  199.48   17.70
  -3   0  -4  196.68   16.70
  -3   0  -4  224.08   17.30
   3   0  -4  213.08   16.50
  -3  -1   4    5.40    1.30
  -3  -1   4   -0.30    5.80
   3  -1  -4    7.70    3.80
   3  -1  -4    7.60    1.90
  -3  -1   4    4.40    3.10
  -3   1  -4    9.60    3.80
   3  -1   4    4.80    3.00
   3   1  -4    9.80    4.80
  -3   1   4    3.30    1.70
   3  -1   4    8.00    3.10
  -3  -1  -4    5.60    3.90
  -3  -1  -4   19.10    4.90
  -3   1   4   11.40    4.70
  -3   1   4    5.40    3.20
  -3  -2   4   34.50    3.80
  -3  -2   4   37.50    5.20
  -3   2  -4   50.99    7.00
   3  -2  -4   40.10    4.70
  -3  -2   4   43.00    7.60
   3  -2  -4   46.30    6.70
  -3   2   4   42.60    6.90
   3  -2   4   42.00    6.40
  -3  -2  -4   35.00    6.00
  -3   2   4   42.20    5.40
   3  -2   4   36.60    5.30
   3   2  -4   33.30    7.70
  -3   2   4   37.40    4.30
  -3  -2  -4   40.10    5.80
   3  -2   4   46.50    5.40
   3   3   4    7.90    5.90
  -3  -3   4   10.70    2.60
   3  -3  -4   10.20    3.30
  -3  -3   4    9.20    5.20
   3  -3  -4   12.90    4.90
  -3   3  -4    8.20    5.70
   3  -3   4    8.10    4.60
  -3  -3  -4   14.90    5.30
   3  -3   4    7.80    3.40
  -3   3   4    8.20    3.20
  -3   3   4   11.00    5.00
  -3  -3  -4    9.60    4.40
   3   3  -4   12.60    6.90
  -3  -4   4   10.00    6.50
   3   4   4   24.50    8.60
  -3  -4   4    8.30    3.30
  -3   4  -4   -5.10    8.50
   3  -4  -4    9.90    4.30
   3  -4  -4   11.30    5.50
   3  -4   4   14.10    5.30
  -3  -4  -4   16.10    5.00
  -3   4   4   -6.70    5.20
   3  -4   4   15.20    4.80
   3   4  -4   14.50    8.10
  -3  -4  -4   12.60    5.60
   3  -5  -4   64.39    6.90
  -3  -5  -4   77.89    8.30
  -3  -5  -4   75.99    9.40
   3  -5   4   57.29    8.60
  -3   5   4   74.09    8.40
  -3  -5  -4   80.39   22.60
   3   5  -4   57.79   13.70
   3   6   4    5.00   10.40
  -3  -6   4    5.90    4.90
   3  -6  -4    5.80    5.30
  -3  -6   4    4.30    8.10
  -3  -6   4    8.20    8.60
   3  -6  -4   11.60    8.00
  -3   6  -4   16.30   10.80
  -3  -6  -4    5.40    5.20
   3   6  -4   10.70   11.20
   3  -6   4    3.90    5.90
  -3   6   4   -8.30   12.50
   3  -6   4    1.00    5.30
  -3  -6  -4  -28.10   14.90
  -3  -6  -4    3.90    5.30
  -3  -7   4   13.30   10.80
   3   7   4    8.50   12.80
   3  -7  -4   10.20    6.60
  -3  -7   4    5.60    5.80
   3  -7  -4   14.30    9.30
  -3  -7   4   10.90    7.70
  -3   7  -4   32.50   10.70
  -3  -7   4    8.60    6.00
  -3   7  -4  -20.20   23.50
  -3  -7  -4   21.20    7.20
   3  -7   4    5.40    7.20
  -3   7   4   12.60   12.90
  -3  -7  -4   -8.60   14.10
   3   7  -4   14.30   13.30
   3  -7   4    6.70    7.30
  -3  -7  -4   13.10    7.40
  -3   8  -4  -12.90   20.80
  -3  -8   4   -3.70    6.80
   3  -8  -4    0.10    8.40
   3  -8  -4    5.10    8.50
   3   8   4    2.80   14.30
  -3  -8   4    2.30   12.40
   3  -8   4   -4.60    8.30
  -3  -8  -4   -1.30    8.10
   3  -8   4   -7.90    8.10
  -3  -8  -4   -0.20    7.00
  -3  -8  -4    6.50   15.80
  -3   8   4   -1.80   14.20
   3   8  -4   11.50   17.40
  -3  -9   4   29.10    9.10
   3  -9  -4   39.50   11.30
  -3  -9   4   28.50   18.20
   3   9   4   32.30   18.60
  -3   9  -4    4.70   26.20
   3  -9  -4   27.50   12.60
  -3   9   4   12.80   17.40
  -3  -9  -4   28.00   10.40
   3  -9   4   22.60    9.60
  -3  -9  -4   26.30   16.00
   3  -9   4    8.80   10.30
   3   9  -4   34.40   19.40
   3 -10  -4    2.60   11.30
   3 -10  -4   -5.40   10.90
  -3 -10   4    2.20    9.80
  -3  10  -4   -3.00   26.00
  -3 -10   4   -9.90   19.20
   3  10   4   -6.00   18.90
   3 -10   4   -6.40   11.30
  -3 -10  -4    1.50   11.60
   3  10  -4   25.10   24.30
  -4   0   4  444.26   34.50
   4   0   4  483.95   35.90
   4   0  -4  365.96   35.10
  -4   0  -4  453.05   35.40
  -4   0  -4  435.46   36.20
  -4   0   4  352.16   39.60
   4   0  -4  459.25   36.30
   4  -1  -4  335.47   28.80
  -4   1  -4  384.16   30.50
   4   1   4  343.87   29.30
   4  -1  -4  387.36   30.90
  -4  -1   4  351.66   28.50
  -4   1  -4  336.27   29.40
  -4   1   4  385.86   32.00
  -4   1   4  363.46   28.70
   4  -1   4  347.07   29.60
  -4   1   4  353.16   30.00
  -4  -1  -4  371.66   30.60
   4  -2  -4  185.38   16.00
  -4  -2   4  209.98   21.50
   4  -2  -4  185.68   18.10
  -4   2  -4  191.98   17.60
   4  -2   4  187.98   16.50
   4  -2   4  189.28   17.60
  -4   2   4  194.98   18.30
  -4  -2  -4  206.58   18.70
  -4   2   4  198.88   17.20
   4  -2   4  189.88   17.90
   4   2  -4  183.18   19.70
  -4  -2  -4  186.48   17.70
   4  -3  -4  273.67   22.00
  -4  -3   4  272.47   21.40
  -4   3  -4  256.97   23.60
   4  -3  -4  271.07   24.00
  -4  -3   4  254.07   24.90
  -4  -3  -4  296.77   23.80
   4  -3   4  238.78   23.30
  -4  -3  -4  239.28   23.40
  -4   3   4  264.07   23.90
   4  -3   4  283.07   22.40
  -4   3   4  248.28   22.30
   4   3  -4  250.97   26.20
   4  -4  -4  423.36   37.00
   4  -4  -4  451.65   35.20
  -4   4  -4  439.76   38.20
  -4  -4   4  412.26   34.60
   4   4   4  449.95   39.10
  -4  -4   4  405.06   37.60
   4  -4   4  432.06   35.30
  -4  -4  -4  429.56   36.40
  -4   4   4  428.46   35.80
   4   4  -4  450.05   39.80
   4  -4   4  393.86   36.30
  -4  -4  -4  407.96   36.40
  -4  -4  -4  443.46   37.10
   4  -5  -4   84.69   12.30
  -4  -5   4   85.29    9.00
   4   5   4   95.09   15.60
  -4   5  -4   48.90   16.20
  -4  -5   4   93.49   14.00
   4  -5  -4   87.49   10.30
  -4  -5  -4   99.49   13.70
  -4  -5  -4  110.79   10.50
   4   5  -4  100.09   17.50
  -4  -5  -4   84.19   11.40
   4  -5   4   71.09   11.20
   4  -5   4  100.89   10.90
  -4  -5  -4  100.09   12.80
   4  -6  -4  216.98   18.90
  -4   6  -4  192.38   17.40
   4   6   4  206.88   25.40
  -4  -6   4  182.48   22.40
  -4  -6   4  194.18   17.90
   4  -6  -4  199.38   20.90
   4  -6   4  201.38   18.70
  -4  -6  -4  183.88   19.90
  -4   6   4  216.98   18.80
  -4  -6  -4  203.98   20.20
  -4  -6  -4  205.48   18.60
  -4  -6  -4  216.68   23.00
   4  -6   4  185.08   19.70
  -4  -6  -4  168.88   36.00
   4   6  -4  199.78   25.80
  -4  -7   4   18.50    6.70
   4  -7  -4   17.40    9.70
   4   7   4   24.00   13.60
  -4   7  -4   11.30   13.80
   4  -7  -4   22.30    7.50
  -4  -7   4   10.10   13.00
  -4  -7   4    7.50   11.60
  -4  -7  -4   25.00    9.30
  -4  -7  -4   -2.40   20.80
   4  -7   4   10.40    7.40
  -4  -7  -4   24.50    8.20
   4  -7   4   17.90    8.70
   4   7  -4   23.20   15.30
  -4   7   4   10.20   18.20
  -4  -7  -4   20.70    8.10
  -4  -7  -4   14.90   12.10
   4   8   4  148.49   26.30
  -4  -8   4  159.68   15.80
   4  -8  -4  136.69   19.00
  -4   8  -4  139.59   40.10
   4  -8  -4  146.49   16.40
  -4  -8   4  140.19   23.40
  -4  -8  -4  162.78   19.00
   4  -8   4  156.28   18.20
   4   8  -4  188.78   28.50
  -4  -8  -4  149.79   23.90
  -4  -8  -4  113.79   30.80
  -4  -8  -4  146.39   17.00
  -4   8   4  151.68   27.00
   4  -8   4  151.38   18.60
  -4   9  -4   66.79   35.70
   4   9   4   74.49   23.40
  -4  -9   4   80.19   13.70
   4  -9  -4   91.29   14.90
  -4  -9   4   91.29   20.80
   4  -9  -4  102.29   18.40
  -4  -9  -4   56.09   20.10
   4  -9   4  110.29   14.70
  -4  -9  -4   85.09   14.00
  -4   9   4   78.09   24.80
  -4  -9  -4   79.59   25.30
   4  -9   4   79.89   16.00
   4   9  -4   98.39   25.80
   4 -10  -4  107.99   22.10
  -4 -10   4  156.18   18.40
   4  10   4  144.69   32.20
  -4  10  -4  122.09   42.10
   4 -10  -4  156.58   19.20
  -4 -10   4  138.59   29.10
  -4 -10  -4  169.48   29.30
   4  10  -4  129.49   31.40
   4 -10   4  124.29   18.60
  -4 -10  -4  171.18   20.60
  -5   0   4   41.30    4.80
  -5   0  -4   50.59    8.80
  -5   0   4   62.59    9.60
   5   0   4   51.79    7.50
   5   0  -4   56.09    8.80
  -5   0   4   32.70   11.00
  -5   0  -4   53.89    6.90
   5  -1  -4    4.30    3.50
  -5  -1   4    4.70    1.90
  -5   1  -4   11.90    4.00
   5  -1  -4    3.60    5.60
  -5  -1   4  -20.80    8.80
  -5   1  -4   16.70    6.80
   5   1   4    4.30    3.50
  -5  -1  -4   12.00    6.50
   5  -1   4   16.10    6.00
   5  -1   4   -0.90    4.90
  -5   1   4    2.80    2.40
  -5   1   4   17.40    7.50
  -5  -1  -4   15.60    6.50
  -5   1   4    7.80    5.70
   5  -2  -4   64.79   10.10
   5  -2  -4   59.99    6.80
  -5   2  -4   66.29   10.40
  -5  -2   4   38.60   13.40
  -5  -2   4   54.69    5.90
  -5  -2  -4   57.69    9.70
  -5   2   4   68.49   10.60
  -5   2   4   69.79    9.30
   5  -2   4   64.69    8.10
  -5  -2  -4   25.80   11.10
  -5   3  -4   42.70    8.00
  -5  -3   4   24.70   11.10
   5   3  -4   65.09   13.10
  -5   3   4   46.60    8.50
   5  -3   4   31.50    8.00
  -5  -3  -4   43.70   10.00
  -5  -4   4   21.40    4.30
   5  -4  -4   19.70    8.10
  -5  -4   4   12.00   10.10
   5  -4  -4   22.90    5.50
  -5   4  -4   15.30    8.30
  -5  -4  -4   12.50    8.40
  -5   4   4   18.10    6.60
  -5  -4  -4   17.40    8.60
   5   4  -4   22.30   11.10
   5  -4   4   25.30    6.30
  -5   5  -4    1.00   12.00
   5  -5  -4    1.60    7.60
   5  -5  -4    2.10    5.50
  -5  -5   4   -2.00    4.20
  -5  -5   4    5.30   10.30
  -5   5   4    1.50    8.50
  -5  -5  -4    6.10    8.50
   5  -5   4   -1.10    6.60
   5  -5   4   -6.20    5.30
   5   5  -4    7.70   11.10
  -5  -5  -4    2.00    7.10
  -5  -5  -4    3.40    6.90
  -5  -6   4    3.10    5.30
   5  -6  -4    5.30    6.60
   5   6   4    3.60   13.60
  -5  -6   4    1.60   10.20
  -5   6  -4   -0.90   11.50
   5  -6  -4    8.40    8.70
  -5   6  -4    0.60    4.90
  -5  -6  -4    6.20    7.40
   5  -6   4    2.10    7.30
  -5  -6  -4   10.00    9.10
  -5  -6  -4   14.60   24.70
   5  -6   4    3.10    7.40
  -5  -6  -4    0.20    9.70
  -5  -6  -4    8.40    6.70
   5   6  -4    3.70   12.40
  -5  -7   4   44.30   14.50
  -5  -7   4   28.40   16.10
  -5   7  -4   17.60   19.00
   5   7   4   46.30   18.20
   5  -7  -4   59.09   13.70
   5  -7  -4   46.20    9.50
  -5  -7   4   45.30    8.30
   5  -7   4   34.10   10.60
   5  -7   4   50.39    9.80
  -5  -7  -4   48.20   27.20
  -5  -7  -4   63.39   12.60
  -5  -7  -4   67.19   12.00
  -5  -7  -4   63.79   10.30
  -5  -7  -4   49.80   14.60
   5   7  -4   68.79   20.20
   5  -8  -4    8.60   11.30
   5   8   4    0.30   15.30
  -5  -8   4    2.20   13.50
  -5   8  -4  -72.89   32.10
  -5  -8   4    7.10    7.50
   5  -8  -4   -4.00    8.70
  -5  -8  -4   -1.50   13.90
   5   8  -4   16.80   18.00
  -5  -8  -4   -1.30   10.30
  -5  -8  -4  -27.20   22.50
   5  -8   4   -0.20   10.60
  -5  -8  -4   -0.70    8.80
  -5   8   4   -0.30   19.70
   5  -8   4   12.10   10.00
  -5  -9   4   13.40   18.50
   5   9   4   25.10   21.30
  -5   9  -4   -4.00   36.00
  -5  -9   4   18.90    9.80
   5  -9  -4   17.60   12.90
   5  -9  -4   20.90    9.70
  -5  -9  -4   20.70   11.60
  -5  -9  -4   29.10   14.70
  -5  -9  -4    2.70   16.50
   5  -9   4   18.60   11.50
   5  -9   4   21.00   11.70
  -5  -9  -4  -29.40   22.50
   5   9  -4   32.30   23.10
  -6   0   4  960.70   80.49
  -6   0   4  943.11   74.19
  -6   0   4  918.21   76.59
  -6   0  -4  938.71   76.79
  -6   0  -4  917.51   75.59
   6  -1  -4  297.67   23.70
  -6   1  -4  279.77   23.70
  -6  -1   4  239.88   21.80
  -6   1  -4  261.97   24.90
   6  -1  -4  264.67   25.30
  -6  -1   4  263.67   25.20
  -6  -1  -4  263.67   25.60
  -6   1   4  269.47   24.60
   6  -1   4  264.87   24.90
  -6  -1  -4  286.27   25.60
  -6   1   4  286.17   27.30
  -6  -2   4  230.38   20.70
   6  -2  -4  255.97   24.50
   6  -2  -4  245.38   21.70
  -6   2  -4  275.57   24.00
  -6   2   4  257.97   24.60
   6  -2   4  271.47   22.80
  -6  -2  -4  240.48   24.00
  -6   2   4  276.47   23.70
  -6  -3   4   -8.60   11.00
   6  -3  -4    5.80    4.80
  -6  -3   4    8.40    3.30
   6  -3  -4    7.90    8.20
  -6   3  -4   11.30    8.20
   6  -3   4    4.20    5.70
  -6  -3  -4   15.40    8.20
  -6   3   4   22.80    8.80
  -6   3   4   11.40    7.10
  -6  -3  -4   -0.70   10.50
   6  -4  -4  280.27   26.10
  -6  -4   4  255.17   21.60
   6  -4  -4  258.07   22.70
  -6   4  -4  263.57   26.00
  -6  -4   4  259.87   29.40
   6   4  -4  265.37   29.50
   6  -4   4  240.38   23.20
  -6   4   4  247.38   24.00
  -6  -4  -4  270.87   28.60
   6  -4   4  273.77   25.50
  -6  -4  -4  251.17   25.50
   6  -5  -4   28.30   10.60
  -6  -5   4   28.40    5.70
   6  -5  -4   27.40    7.00
  -6   5  -4   31.80   12.60
  -6  -5   4    7.80   11.70
   6  -5   4   21.80    9.80
  -6  -5  -4   26.40   11.70
   6   5  -4   29.90   14.40
  -6   5   4   13.20    9.50
   6  -5   4   30.80    8.20
  -6  -5  -4   24.80   10.00
  -6  -5  -4   16.40   10.40
  -6  -6   4  345.37   37.00
   6  -6  -4  348.27   31.20
  -6   6  -4  248.78   38.40
   6  -6  -4  344.87   34.20
  -6  -6   4  405.26   30.50
   6  -6   4  367.56   31.90
   6  -6   4  373.56   34.50
  -6  -6  -4  380.46   31.20
  -6  -6  -4  351.56   36.30
  -6  -6  -4  380.96   33.80
   6   6  -4  344.07   39.40
  -6  -6  -4  341.27   33.40
  -6   7  -4   49.30   29.00
   6  -7  -4   75.09   12.00
  -6  -7   4   93.99   14.70
  -6  -7   4   18.00   25.00
  -6  -7   4   90.29   21.00
   6  -7  -4   81.69   16.40
   6   7  -4  100.09   25.40
  -6  -7  -4   75.79   18.80
  -6  -7  -4   89.39   16.20
  -6  -7  -4   90.79   12.90
  -6  -7  -4   80.79   14.40
   6  -7   4   78.49   15.80
  -6  -7  -4   65.29   29.20
   6  -7   4   92.59   13.60
   6  -8  -4   67.29   17.20
   6  -8  -4   64.59   12.70
  -6  -8   4   53.89   19.10
  -6  -8  -4   62.49   13.10
  -6  -8  -4   69.89   15.90
  -6  -8  -4   55.09   17.30
  -6   8   4   43.00   28.90
   6  -8   4   77.89   13.50
  -6  -8  -4   76.29   29.40
   6   8  -4   73.99   24.30
  -6  -8  -4   48.70   17.90
   6  -8   4   61.09   14.80
  -6  -9   4   11.30   18.30
   6  -9  -4    8.30   13.40
   6  -9  -4   20.80   11.30
  -6   9  -4   -3.00   40.00
   6  -9   4    0.60   11.80
  -6  -9  -4   -0.40   17.80
  -6  -9  -4   13.10   16.10
   6  -9   4    6.90   13.10
   6   9  -4   14.20   22.00
  -6  -9  -4    0.60   10.80
  -7   0  -4   18.50    9.40
  -7   0  -4   23.80    6.80
  -7   0   4   22.40   10.50
  -7   0   4   19.30   12.90
  -7   1  -4   73.89   12.60
   7  -1  -4   38.00    9.70
  -7   1  -4   36.60    7.80
   7  -1  -4   50.09   11.00
  -7  -1   4   47.40   11.00
  -7  -1   4   22.30   17.10
  -7   1   4   41.70   10.70
  -7  -1  -4   51.69   11.70
  -7   1   4   50.69   12.80
   7  -1   4   25.00   11.00
  -7  -1  -4   49.80    9.70
   7  -2  -4   22.80   10.10
   7  -2  -4   22.80    6.90
  -7   2  -4   23.10   10.60
  -7  -2   4   22.90   11.70
  -7  -2   4  -14.60   12.50
   7  -2   4   29.50    8.70
  -7   2   4   28.30   10.10
  -7  -2  -4   33.20   11.60
  -7  -2  -4   35.00   11.80
  -7   2   4   31.00    9.90
  -7   3  -4    7.60    9.40
  -7  -3   4    7.90   10.50
   7  -3  -4   10.20    9.50
   7  -3  -4    8.20    5.80
  -7  -3   4    0.10   14.20
  -7  -3   4   13.90    4.00
   7  -3   4   12.40    7.10
  -7   3   4   12.50    8.70
  -7  -3  -4   30.50   11.50
  -7   3   4   11.60    8.80
  -7  -3  -4   31.40   11.40
  -7   4  -4   19.20   10.70
   7  -4  -4   16.80   10.60
  -7  -4   4    8.10   15.70
   7  -4  -4   20.90    6.80
  -7   4   4   22.20    9.30
   7  -4   4   21.90    8.10
  -7  -4  -4    6.50   13.40
  -7  -4  -4   33.80   12.30
  -7   5  -4   43.30   13.60
   7  -5  -4   39.30    8.80
  -7  -5   4   37.10   18.50
   7  -5  -4   42.60   13.10
  -7  -5  -4  104.19   15.60
   7  -5   4   44.50   12.50
   7  -5   4   53.39    9.30
  -7   5   4   58.69   12.60
  -7  -5  -4   44.10   15.40
   7  -6  -4   11.90    8.10
  -7  -6   4    8.30   17.10
  -7   6  -4    9.60   17.10
   7  -6  -4    3.70   11.40
  -7  -6  -4   -0.10   12.10
  -7  -6  -4   -5.80    7.20
  -7  -6  -4   -8.70   11.70
   7  -6   4   -4.80   11.30
  -7  -6  -4    2.20   13.60
   7   6  -4   10.20   16.00
   7  -6   4    3.90    8.30
   7  -7  -4    3.80    8.60
  -7  -7   4   13.30   16.40
   7  -7  -4   17.70   14.50
  -7  -7  -4   50.59   27.20
   7  -7   4    5.30   12.80
  -7  -7  -4   12.00    9.10
   7   7  -4    8.20   18.60
  -7  -7  -4   26.40   16.40
  -7  -7  -4   24.90   14.00
  -7  -7  -4   11.70   13.00
   7  -7   4   14.10    9.50
   7  -8  -4   -1.10   14.50
   7  -8  -4    0.40   10.10
  -7  -8   4   -1.10   17.60
   7   8  -4    8.10   23.30
  -7  -8  -4  -13.90   10.90
  -7  -8  -4  -11.10   13.80
  -7  -8  -4   61.09   23.20
   7  -8   4   -3.10   12.60
   7  -8   4   18.50   11.50
  -7  -8  -4    8.20   15.60
  -7  -8  -4    5.50   17.50
  -8   0  -4  154.68   20.30
  -8   0  -4  117.49   15.40
  -8   0   4  160.48   23.20
  -8   0   4  128.79   19.70
  -8   1  -4   16.60    7.80
  -8  -1   4   13.30   11.00
  -8  -1   4   12.90   16.70
  -8   1  -4   19.80   12.40
  -8  -1  -4   16.70   12.60
  -8  -1  -4   15.90    8.40
  -8   1   4    3.20   11.10
  -8   1   4   31.80   12.50
   8  -2  -4  534.45   52.19
  -8   2  -4  612.84   53.69
  -8  -2   4  645.64   54.59
   8  -2  -4  646.24   54.69
  -8   2   4  628.24   53.79
   8  -2   4  666.73   53.89
  -8   2   4  605.04   54.79
  -8  -2  -4  642.24   55.09
  -8  -2  -4  630.64   54.19
  -8  -3   4    7.40   18.30
  -8  -3   4   42.60   15.80
  -8   3  -4   41.40   13.60
   8  -3  -4   33.70    8.90
   8  -3  -4   40.70   12.80
  -8  -3  -4   22.10   13.50
   8  -3   4   37.70   10.60
  -8  -3  -4   54.69   15.10
  -8   3   4   36.30   12.60
  -8   3   4   46.10   12.30
   8  -4  -4  239.38   25.70
   8  -4  -4  217.08   21.20
  -8  -4   4  239.38   28.50
  -8   4  -4  199.58   24.80
  -8  -4  -4  191.18   27.00
  -8   4   4  213.68   24.10
  -8  -4  -4  230.68   26.20
   8  -4   4  225.18   21.90
  -8   5  -4   12.50   13.30
  -8  -5   4  -12.10   15.40
   8  -5  -4    6.20    7.80
   8  -5  -4    2.50   13.30
  -8  -5   4    3.30   19.20
   8  -5   4    0.50    8.70
  -8  -5  -4   -5.90   13.00
  -8  -6   4   92.09   26.60
   8  -6  -4   86.09   13.10
   8  -6  -4   82.69   18.00
  -8   6  -4   85.49   22.60
  -8  -6   4  115.79   25.60
  -8  -6  -4   86.89   19.40
  -8  -6  -4   54.39   17.10
   8  -6   4   77.39   13.80
  -8  -7   4   -1.60   20.90
   8  -7  -4   13.70   15.20
  -8  -7   4   23.20   22.80
   8  -7  -4    0.80    9.50
   8  -7   4    3.50    9.70
  -8  -7  -4    6.50   13.60
  -8  -7  -4    7.80   16.30
   8  -7   4   10.00   14.80
  -9   0   4   12.90   13.20
  -9   0  -4    2.90   14.20
  -9   0   4   26.70   15.10
  -9   1  -4   51.79   14.40
  -9  -1   4   49.90   19.20
  -9  -1   4   39.10   14.40
  -9   1   4   50.59   15.00
  -9   1   4   49.20   15.40
  -9  -1  -4   79.19   17.30
  -9   2  -4    7.60   11.60
  -9  -2   4    0.10   20.20
  -9  -2   4    5.90   13.10
  -9   2   4    9.80   12.70
  -9   2   4    6.80   12.60
  -9  -2  -4   12.00   14.40
  -9   3  -4   24.40   13.90
   9  -3  -4   26.70   13.20
  -9  -3   4  -21.50   20.50
  -9  -3   4   35.90   17.40
  -9  -3  -4   45.60   14.70
   9  -3   4   30.50   12.20
  -9   3   4   27.90   13.50
  -9   3   4   32.30   13.90
  -9  -4   4   -3.50   14.50
  -9  -4   4   25.50   20.20
  -9   4  -4   -1.70   13.20
   9  -4  -4   16.20   13.60
  -9   4   4    5.20   12.60
  -9  -4  -4   14.50   16.40
   9  -4   4   18.70   10.50
  -9  -5   4   52.79   19.40
   9  -5  -4   35.20   15.40
  -9   5  -4   31.10   15.80
  -9  -5   4   13.60   16.60
   9  -5  -4   25.00   10.90
   9  -5   4   15.20   10.70
  -9  -5  -4   37.70   17.90
  -9  -5  -4   29.00   16.90
  -9  -6   4    9.20   21.90
  -9  -6   4   30.50   21.90
   9  -6  -4   23.40   10.50
   9  -6  -4   15.80   14.70
  -9  -6  -4   -0.70   18.20
   9  -6   4   11.00   11.10
  -9  -6  -4   10.80   18.20
 -10   0   4  395.56   44.30
 -10   0  -4  490.05   46.20
 -10   0   4  465.65   45.80
 -10  -1   4   -4.60   15.90
 -10  -1   4    2.60   16.90
 -10   1  -4    1.50   15.60
 -10   1   4    2.40   14.80
 -10   1   4   20.50   15.30
 -10  -1  -4    2.20   14.30
 -10   2  -4  113.69   22.00
 -10  -2   4   77.99   20.20
 -10  -2   4  105.09   26.80
 -10  -2  -4  105.99   23.40
 -10   2   4   84.09   19.10
 -10   2   4   85.69   18.80
 -10   3  -4    1.50   15.00
 -10  -3   4    3.80   18.70
 -10  -3  -4   -2.00   14.80
  10  -3   4   38.00   14.10
 -10   3   4    0.60   14.30
 -10   3   4    9.00   16.60
 -10  -4   4  173.98   29.20
 -10   4  -4  229.68   29.90
  10  -4   4  190.68   25.10
 -10  -4  -4  197.98   31.70
 -11   0   4    7.20   17.50
 -11   0  -4    9.20   18.60
   0   0   5    7.40    4.10
   0   0  -5    6.80    3.90
   0   0  -5   11.70    3.50
   0   0  -5    8.60    3.70
   0   0   5    7.20    2.70
   0   0   5   10.70    3.60
   0   0   5    8.40    3.10
   0   0  -5    6.30    3.80
   0   1  -5    0.80    1.20
   0   1   5   -0.10    2.30
   0  -1  -5    1.20    1.00
   0   1  -5    3.40    4.10
   0  -1   5    2.60    2.30
   0  -1  -5    2.90    2.10
   0   1  -5   -3.70    4.40
   0  -1  -5    0.80    1.80
   0   1  -5    1.50    1.90
   0   1   5    0.10    1.50
   0  -1   5   -0.40    1.70
   0   1  -5   -1.10    2.70
   0  -1   5    1.60    1.20
   0   1   5    0.30    3.80
   0  -1  -5   -5.40    3.60
   0   1   5    3.50    1.90
   0  -1  -5    0.30    3.40
   0  -2   5   17.60    4.30
   0   2   5   23.00    4.30
   0  -2  -5   17.80    2.20
   0  -2  -5   20.50    5.80
   0   2  -5   16.10    2.50
   0   2  -5   15.00    7.40
   0   2   5   17.80    3.00
   0   2  -5   17.00    2.00
   0  -2  -5   21.00    3.80
   0   2   5   12.50    5.30
   0   2  -5   18.80    2.60
   0  -2  -5    7.30    4.00
   0  -2   5    9.40    2.70
   0   2  -5   24.70    5.20
   0  -2   5   16.40    2.50
   0  -2  -5   19.50    3.40
   0  -3   5   -2.90    2.20
   0  -3  -5   -2.90    2.50
   0   3  -5   -2.80    2.70
   0   3   5    1.30    3.00
   0  -3   5    3.80    2.20
   0   3  -5    4.60    4.00
   0  -3  -5    0.70    1.40
   0   3  -5   -3.20    6.70
   0  -3   5    0.90    4.10
   0  -3  -5   -3.90    3.60
   0   3   5   -0.30    2.60
   0  -3  -5   -1.10    4.30
   0  -3   5   -0.20    1.50
   0  -3  -5    2.40    4.90
   0   3  -5    1.10    1.30
   0  -4   5   16.30    3.60
   0   4  -5   14.80    5.90
   0   4  -5   26.20   10.50
   0  -4   5   16.60    3.20
   0  -4  -5    7.80    5.60
   0  -4   5   14.30    2.20
   0   4   5   18.30    3.80
   0  -4  -5   25.40    7.60
   0  -4  -5   22.30    4.30
   0  -4  -5   11.40    7.80
   0   4   5   14.40    5.10
   0  -5  -5  -14.00    5.30
   0  -5   5   -0.20    3.90
   0   5   5   -2.00    5.60
   0  -5  -5    7.10    7.00
   0   5  -5    5.20    9.90
   0  -5  -5    1.10    3.80
   0  -5   5    1.90    3.00
   0   5   5   -1.30    2.60
   0   5  -5   23.60    6.40
   0  -5  -5   -3.50    3.60
   0   6  -5   69.99   16.80
   0  -6  -5   25.80    8.50
   0  -6   5   57.59    7.70
   0  -6  -5   71.09    8.50
   0  -6  -5   96.79   12.60
   0  -6   5   43.80    7.60
   0  -6  -5   50.79    8.20
   0   6   5   56.69   11.00
   0  -7  -5    2.10    6.40
   0   7   5   -1.20    9.00
   0  -7   5   -4.20    6.00
   0  -7   5    0.80    4.90
   0  -7  -5    3.20    3.70
   0   7  -5   10.50   15.00
   0  -7  -5    8.50    8.70
   0   8  -5   19.90   16.40
   0  -8   5    2.10    6.40
   0  -8   5    1.80    6.10
   0  -8  -5    5.20    8.70
   0  -8  -5    2.80    8.10
   0   8   5    1.50   11.70
   0   9   5   -8.30   13.10
   0   9  -5    9.00   19.80
   0  -9  -5   -0.60    8.00
   0  -9  -5   11.30    9.80
   0  -9   5    1.00    8.70
   0 -10  -5   59.79   13.30
   0  10   5   42.70   18.90
   0 -10  -5   38.80   13.70
   0  10  -5   44.00   22.00
   0 -10   5   50.99   11.90
  -1   0   5    2.10    1.80
   1   0   5    2.40    2.00
   1   0   5   -0.20    1.30
  -1   0   5    5.10    4.40
   1   0  -5    0.30    1.50
   1   0  -5    1.00    1.80
   1   0  -5    1.90    1.70
  -1   0   5    1.40    1.60
   1   0   5   -1.00    1.90
  -1   0  -5    0.20    1.70
   1   0  -5    6.70    4.00
  -1   0  -5    1.60    2.30
  -1   0   5    0.80    1.40
  -1   0  -5    1.30    1.30
  -1  -1   5   95.59    8.80
  -1   1  -5   78.39    9.00
   1  -1  -5   92.49    8.50
  -1   1  -5   88.29    7.80
   1   1   5   86.19    7.70
   1  -1  -5   96.79    8.50
   1  -1  -5   86.99    7.20
  -1  -1   5   92.69    7.00
   1   1   5   83.49    7.90
  -1  -1   5   89.29    7.20
  -1   1  -5   81.59    7.40
  -1  -1   5   81.99    7.60
   1  -1  -5   87.69    8.00
  -1  -1   5   82.69    8.60
   1   1  -5   86.09    9.00
   1  -1   5   90.59    8.80
  -1   1   5   85.79    8.10
  -1   1   5   84.59    8.00
  -1   1   5   90.89    8.80
   1   1  -5   77.09    7.20
  -1  -1  -5   86.19    8.10
   1  -1   5   87.79    7.50
   1   1  -5  100.09    8.90
   1  -1   5   92.39    7.70
  -1  -1  -5   74.59    7.60
   1   1  -5   74.39    6.90
   1   1  -5   82.49    7.70
  -1  -1  -5   72.49    7.30
   1  -2  -5  277.97   22.60
  -1  -2   5  288.97   22.80
   1  -2  -5  291.47   23.80
  -1  -2   5  273.67   22.20
  -1   2  -5  249.78   22.70
   1  -2  -5  307.27   23.80
   1   2   5  276.07   23.20
  -1  -2   5  285.07   23.70
  -1   2  -5  285.87   22.70
   1   2   5  241.28   23.40
  -1  -2   5  225.88   24.10
   1  -2  -5  309.97   23.40
  -1   2  -5  312.77   22.90
  -1  -2   5  264.57   22.40
  -1  -2   5  268.37   23.20
  -1  -2  -5  283.57   23.70
   1  -2   5  281.17   22.70
   1  -2   5  294.27   22.70
  -1  -2  -5  295.07   22.80
  -1  -2  -5  279.67   23.20
   1   2  -5  287.17   22.40
   1   2  -5  298.27   22.90
  -1   2   5  278.07   23.60
   1  -2   5  283.67   22.80
   1  -2   5  235.68   24.50
  -1   2   5  285.07   23.70
   1   2  -5  288.37   25.10
  -1  -2  -5  262.97   26.60
  -1  -3   5  524.65   40.90
   1   3   5  522.35   41.60
  -1  -3   5  483.15   41.00
  -1  -3   5  519.85   41.00
   1   3   5  511.15   42.40
  -1   3  -5  479.65   41.20
   1  -3  -5  517.65   41.20
  -1  -3   5  505.85   42.30
   1  -3  -5  520.85   42.50
   1  -3  -5  534.85   41.60
   1   3  -5  556.84   41.00
  -1  -3  -5  511.15   41.70
   1  -3   5  485.25   41.20
  -1  -3  -5  479.75   42.60
   1   3  -5  531.75   44.40
  -1   3   5  515.15   42.30
  -1  -3  -5  480.55   41.10
   1  -3   5  547.25   41.20
  -1  -4   5  473.15   37.10
  -1   4  -5  450.35   37.80
   1  -4  -5  462.05   38.80
   1  -4  -5  453.75   37.30
   1  -4  -5  486.85   37.60
  -1   4  -5  446.76   39.40
  -1  -4   5  464.65   37.10
  -1  -4   5  483.95   37.00
   1   4   5  454.45   39.10
  -1   4   5  459.05   39.00
   1  -4   5  434.56   37.30
   1   4  -5  452.45   41.30
  -1  -4  -5  454.55   37.30
  -1  -4  -5  462.95   38.00
   1  -4   5  444.66   37.30
   1  -5  -5   64.59    6.90
  -1   5  -5   58.99   17.00
   1  -5  -5   61.29    9.70
   1  -5  -5   60.59    5.60
  -1  -5   5   57.29    5.90
  -1  -5   5   52.29    6.70
  -1   5  -5   84.99   10.10
   1   5   5   63.59   10.90
  -1  -5   5   72.59    7.60
   1  -5  -5   65.49    7.70
  -1   5   5   51.89    7.50
   1  -5   5   51.99    7.20
  -1  -5  -5   52.69    7.30
   1  -5   5   62.99    7.50
  -1  -5  -5   43.20   12.10
  -1   5   5   56.49   10.30
   1   5  -5   73.19   14.80
  -1  -5  -5   61.39    8.90
  -1  -6   5  127.59   11.40
  -1  -6   5  135.19   12.90
   1   6   5  157.98   17.70
  -1   6  -5  143.39   23.90
  -1  -6   5  145.69   13.30
   1  -6  -5  155.08   16.20
   1  -6  -5  142.29   13.80
   1  -6  -5  132.69   12.30
  -1  -6   5  141.29   11.70
   1  -6  -5  124.59   11.70
   1  -6   5  132.49   13.50
  -1  -6  -5  125.79   13.60
   1   6  -5  154.88   20.40
   1  -6   5  134.49   13.40
  -1  -6  -5  154.18   19.10
  -1   6   5  136.49   12.60
  -1  -6  -5   98.89   15.30
  -1   6   5  146.19   17.30
   1  -7  -5  223.68   22.80
  -1  -7   5  212.08   19.90
   1   7   5  220.78   25.00
  -1  -7   5  201.78   19.70
   1  -7  -5  219.68   18.70
  -1   7  -5  223.28   31.30
   1  -7  -5  236.78   20.80
  -1   7   5  218.18   25.00
   1  -7   5  219.08   20.40
  -1  -7  -5  248.28   24.50
   1  -7   5  236.08   20.60
  -1  -7  -5  232.68   20.60
  -1  -7  -5  180.58   22.60
   1   7  -5  242.18   29.90
   1  -8  -5   30.30    9.00
  -1   8  -5   24.90   19.50
   1  -8  -5   29.80   11.10
  -1  -8   5   21.20    8.00
  -1  -8   5   27.60    7.60
   1   8   5   27.80   14.00
   1  -8   5   38.10    9.50
   1   8  -5   42.30   17.20
  -1   8   5   17.90   13.50
   1  -8   5   20.00    7.80
  -1  -8  -5   38.60   12.30
  -1  -8  -5   19.50    8.90
  -1  -9   5  148.79   17.30
   1   9   5  152.58   25.30
   1  -9  -5  160.68   18.50
   1  -9  -5  161.08   21.10
  -1   9  -5  158.68   32.70
  -1   9   5  136.19   23.10
   1   9  -5  203.08   33.50
   1  -9   5  161.58   18.10
  -1  -9  -5  163.98   21.50
  -1  -9  -5  154.48   18.30
   1  10   5    7.20   18.00
  -1  10  -5   23.40   24.90
  -1 -10   5    4.70   10.40
   1 -10  -5   12.90   10.10
   1 -10  -5    5.10   11.60
   1  10  -5   24.70   23.00
  -1 -10  -5   15.20   11.60
  -1 -10  -5   12.70   12.60
   1 -10   5   16.50   11.60
   2   0  -5    1.10    2.90
   2   0  -5    4.80    4.20
   2   0   5   -0.10    0.90
  -2   0  -5    1.00    1.80
  -2   0   5    0.30    2.20
   2   0  -5    1.10    2.20
  -2   0   5   -0.30    2.60
  -2   0   5    0.30    0.40
  -2   0   5   -5.40    4.50
   2   0  -5    1.20    0.70
   2   0  -5    1.50    2.20
  -2   0  -5    2.00    3.00
  -2   0  -5    1.30    2.50
  -2   1  -5   16.60    3.80
  -2  -1   5   17.40    5.60
  -2   1  -5   15.20    2.80
  -2  -1   5   14.50    4.10
   2  -1  -5   14.90    3.20
  -2   1  -5   20.80    3.40
  -2  -1   5   19.10    3.00
   2  -1  -5   19.50    4.70
  -2  -1   5   13.00    1.50
   2   1   5   19.90    3.70
   2  -1  -5   16.00    3.70
  -2   1  -5   19.70    3.50
   2  -1  -5   18.80    2.30
  -2  -1   5   15.90    3.10
  -2   1   5   21.30    5.00
   2   1  -5   15.00    4.60
  -2  -1  -5   15.50    3.20
  -2   1   5   22.20    2.30
   2  -1   5   21.30    4.20
  -2  -1  -5   17.30    3.60
   2   1  -5   20.80    5.00
  -2   1   5   20.80    3.30
   2   1  -5   14.70    2.80
   2  -1   5   21.10    3.40
  -2   1   5   19.40    3.80
   2  -2  -5    8.20    2.90
   2  -2  -5    7.40    3.50
  -2  -2   5    2.90    3.80
  -2  -2   5    3.80    2.00
  -2   2  -5    4.50    2.60
  -2  -2   5    3.80    2.40
  -2   2  -5    5.60    2.30
  -2   2  -5    5.10    4.10
   2  -2  -5    7.00    2.20
  -2  -2   5    4.90    1.50
  -2   2   5   10.10    4.20
  -2  -2  -5    4.20    3.70
  -2   2   5    4.80    1.90
  -2   2   5    8.70    2.90
   2  -2   5    6.80    3.90
  -2  -2  -5    4.80    3.20
   2  -2   5    5.60    2.80
   2   2  -5    6.80    1.50
   2  -2   5    7.80    2.90
  -2   2   5    4.60    2.10
  -2  -2  -5    6.30    3.10
   2  -3  -5   36.40    4.70
  -2  -3   5   25.10    5.90
   2  -3  -5   32.10    6.00
   2  -3  -5   31.90    4.50
   2   3   5   25.80    6.60
  -2  -3   5   34.10    3.80
  -2  -3   5   26.40    4.40
  -2   3  -5   14.30    8.50
  -2   3  -5   31.50    4.10
  -2   3  -5   30.20    4.90
  -2  -3  -5   30.50    5.20
  -2  -3  -5   31.00    5.30
   2   3  -5   37.70    3.90
  -2   3   5   35.20    5.20
   2  -3   5   33.90    5.00
   2   3  -5   33.40    8.30
  -2   3   5   33.70    4.30
   2  -3   5   30.20    5.00
  -2  -4   5   18.10    7.50
   2   4   5   37.70    8.30
  -2  -4   5   32.00    7.10
   2  -4  -5   32.00    4.90
   2  -4  -5   48.40    6.00
  -2  -4   5   30.00    4.70
  -2   4  -5   -2.70    8.90
   2  -4  -5   39.40    7.20
  -2  -4   5   44.30    4.90
  -2   4  -5   28.60    4.10
  -2  -4  -5   46.00    5.90
   2  -4   5   39.00    5.80
  -2  -4  -5   39.40    6.20
   2   4  -5   37.00    9.80
   2  -4   5   34.80    5.70
  -2  -4  -5   33.90    6.00
  -2   4   5   36.90    6.20
  -2  -4  -5   27.20   13.60
  -2  -5   5    5.70    4.50
   2  -5  -5    3.90    4.70
  -2  -5   5   -0.60    2.60
   2  -5  -5    6.40    6.20
   2  -5  -5    4.80    3.10
  -2  -5   5    2.90    6.60
  -2  -5   5   -2.50    3.60
  -2   5  -5   -1.60    8.90
   2   5   5    1.30    7.50
   2  -5   5    1.60    4.30
  -2  -5  -5    0.30    4.60
   2  -5   5    0.30    4.60
  -2  -5  -5   -2.00    4.10
  -2   5   5   -3.30    7.10
  -2  -5  -5  -15.60    9.80
   2   5  -5    5.30    8.50
  -2  -6   5    6.20    9.20
  -2   6  -5  -17.30   16.30
   2  -6  -5   14.60    6.80
   2  -6  -5   10.70    5.90
  -2  -6   5   10.50    5.00
  -2  -6   5    1.20    3.10
  -2  -6   5    7.70    4.80
  -2   6  -5   24.50    9.10
   2   6   5   12.00    9.90
   2  -6   5    6.30    5.40
   2  -6   5    7.70    5.30
   2   6  -5   21.30   11.60
  -2  -6  -5   -8.10   11.00
  -2   6   5   12.30    9.20
  -2  -6  -5    4.40    5.10
  -2   6   5    5.10    4.80
  -2  -6  -5   17.00    5.90
  -2  -7   5   -3.00    4.70
  -2  -7   5   -1.60    9.70
  -2   7  -5   -4.20   19.70
   2  -7  -5   19.40    9.10
  -2  -7   5    2.70    5.80
   2   7   5    4.00   10.90
   2  -7  -5    3.70    6.20
  -2  -7   5    3.60    5.10
  -2  -7  -5   10.20    7.60
  -2   7   5    1.40    9.90
   2  -7   5    2.10    5.80
  -2  -7  -5   16.40    7.20
  -2  -7  -5    8.00   13.50
   2   7  -5   17.70   13.20
   2  -7   5    5.20    6.10
   2  -8  -5   47.40   12.40
  -2   8  -5   68.69   26.40
  -2  -8   5   63.99   15.50
  -2  -8   5   41.70    9.00
   2  -8  -5   58.39   10.60
  -2  -8  -5   63.29   10.80
   2  -8   5   31.10    9.00
   2   8  -5   68.69   19.00
  -2   8   5   48.00   15.20
  -2  -8  -5   69.39   16.50
  -2  -8  -5   57.49    9.80
   2  -9  -5   15.50   10.90
   2   9   5   -2.50   15.40
   2  -9  -5    5.20    8.50
  -2  -9   5   -2.70   14.50
  -2   9  -5    1.90   23.90
  -2  -9   5   -5.30    8.30
   2   9  -5    8.70   16.70
   2  -9   5   -0.10    8.20
  -2  -9  -5   -3.00    9.10
  -2  -9  -5    0.40   13.10
  -2   9   5    3.50   15.00
  -2 -10   5    0.20   10.10
  -2  10  -5   16.70   23.70
   2  10   5   13.30   18.40
   2 -10  -5    1.10   11.10
   2 -10  -5    3.20   11.40
  -2 -10   5   11.90   18.20
   2  10  -5   28.60   21.30
  -2 -10  -5   21.70   14.00
  -2 -10  -5   12.30    9.80
   2 -10   5    8.00   11.50
  -3   0   5  -11.30    5.20
  -3   0   5    1.00    3.20
  -3   0   5   -1.30    2.90
  -3   0   5    0.40    1.00
   3   0  -5   -0.30    1.40
   3   0   5   -0.70    1.70
   3   0  -5   -2.00    2.90
  -3   0  -5    0.80    3.60
  -3   0  -5    2.90    1.40
   3  -1  -5  658.83   54.59
   3  -1  -5  644.74   53.29
  -3  -1   5  573.24   56.79
  -3  -1   5  689.03   54.19
  -3   1  -5  685.03   54.59
  -3   1   5  660.13   53.29
   3  -1   5  753.32   54.19
   3   1  -5  671.73   55.79
   3  -1   5  696.33   53.99
  -3  -1  -5  655.13   54.39
  -3  -1  -5  675.53   54.49
  -3   1   5  723.33   56.19
   3   1  -5  638.74   54.19
   3  -2  -5   64.29    8.10
  -3  -2   5   63.59    9.90
  -3   2  -5   68.09    8.00
  -3  -2   5   71.39    5.70
  -3  -2   5   62.19    7.00
   3  -2  -5   57.19    6.40
  -3   2   5   61.99    6.80
  -3  -2  -5   72.29    7.30
  -3  -2  -5   60.89    8.20
   3  -2   5   68.69    7.10
  -3   2   5   64.39    6.20
   3  -2   5   63.39    8.10
  -3   2   5   82.09    9.60
   3  -2   5   60.39    7.20
   3   2  -5   67.09   10.00
   3  -3  -5   16.40    5.40
  -3   3  -5    9.40    6.70
   3  -3  -5   22.90    3.90
  -3  -3   5   17.20    3.80
  -3  -3   5   16.20    2.90
  -3  -3   5   12.60    5.80
  -3  -3  -5   12.60    4.70
  -3   3   5   17.70    5.60
  -3  -3  -5   14.70    5.40
   3  -3   5   11.50    4.90
  -3   3   5   14.80    3.50
   3  -3   5   17.10    4.10
   3   3  -5   18.10    7.50
  -3  -4   5   63.69   10.60
  -3  -4   5   53.99    6.30
   3   4   5   67.19   11.80
   3  -4  -5   58.49    7.40
  -3   4  -5   47.30    6.60
  -3   4  -5   49.70   13.40
   3  -4  -5   72.09    9.90
  -3  -4  -5   61.49    8.80
  -3  -4  -5   78.69    9.50
   3  -4   5   66.69    8.00
   3   4  -5   65.49   12.70
   3  -4   5   58.99    8.30
   3   5   5  838.42   70.19
  -3   5  -5  892.31   66.39
   3  -5  -5  824.72   68.59
  -3   5  -5  877.61   66.39
   3  -5  -5  827.12   66.89
  -3  -5   5  814.62   66.49
  -3  -5   5  828.22   69.49
   3  -5   5  811.92   67.69
  -3  -5  -5  684.13   75.59
  -3  -5  -5  838.52   66.89
  -3   5   5  810.02   66.29
   3  -5   5  832.92   66.99
   3   5  -5  806.92   71.49
  -3  -5  -5  831.12   67.79
  -3  -5  -5  862.71   67.69
  -3  -6   5  110.39   15.90
  -3  -6   5   98.29   13.80
   3  -6  -5  110.89   14.10
  -3  -6   5  106.49   11.30
  -3   6  -5  110.39   19.50
   3   6   5  117.89   17.90
   3  -6  -5  104.49   11.50
  -3  -6  -5  123.49   28.20
  -3  -6  -5   97.19   11.40
   3  -6   5  110.49   12.90
   3  -6   5  112.79   11.80
  -3  -6  -5  108.79   13.00
  -3   6   5  120.99   20.20
  -3  -6  -5   94.69   12.60
   3   6  -5  131.49   21.30
   3   7   5   72.69   17.40
  -3  -7   5   86.39   12.10
  -3  -7   5   87.49   10.60
  -3   7  -5   40.50   28.10
   3  -7  -5   97.09   12.30
  -3   7  -5  114.79   16.80
   3  -7  -5   86.39   14.00
  -3  -7   5   84.29   16.20
  -3   7   5   90.29   18.20
   3  -7   5   88.59   12.30
  -3  -7  -5   21.60   21.40
  -3  -7  -5   79.29   12.50
  -3  -7  -5   78.99   11.30
   3  -7   5   83.19   11.80
  -3  -7  -5   93.69   12.60
   3   7  -5  105.39   20.70
  -3  -8   5    2.70   13.80
   3  -8  -5    7.00    8.60
  -3   8  -5  -16.90   21.10
  -3  -8   5   -4.00    6.50
   3   8   5    3.70   12.60
   3  -8  -5    6.60   10.40
  -3  -8  -5   -5.20   17.30
  -3  -8  -5    6.00    8.10
   3  -8   5    0.20    7.50
   3  -8   5    0.00    7.40
   3   8  -5   15.20   18.00
  -3  -8  -5    6.40    8.70
  -3   8   5   -0.30   12.80
   3  -9  -5  115.39   19.30
   3  -9  -5  145.09   17.50
  -3   9  -5  123.99   35.00
  -3  -9   5  143.49   15.90
   3   9   5  122.79   25.30
  -3  -9   5  107.69   22.70
  -3  -9  -5  133.99   17.60
   3  -9   5  115.79   19.90
   3  -9   5  130.49   16.90
  -3   9   5  107.09   23.10
  -3  -9  -5  110.79   24.30
   3   9  -5  129.69   27.90
  -3 -10   5    2.80   20.00
   3 -10  -5    9.20   11.70
  -3 -10   5    1.10    9.60
   3  10   5    0.80   18.70
   3 -10  -5    8.70   14.00
  -3  10  -5   12.90   30.80
  -3 -10  -5    0.50   10.70
   3  10  -5   20.30   25.10
   3 -10   5    6.10   11.70
   4   0   5    0.80    2.60
  -4   0   5    2.50    8.40
   4   0  -5   -5.30    2.80
  -4   0   5   -0.30    1.30
  -4   0  -5   13.30    5.60
   4   0  -5    3.40    4.30
  -4  -1   5   24.00   11.40
  -4  -1   5   57.59    4.80
   4  -1  -5   68.79    8.30
   4  -1  -5   58.99    5.50
  -4   1  -5   63.59    8.20
  -4   1   5   61.39   10.30
  -4  -1  -5   68.59    8.30
   4  -1   5   63.09    7.40
   4  -1   5   35.20    8.90
  -4  -1  -5   36.90    7.50
  -4   1   5   59.79    7.70
  -4   1   5   55.09    5.40
  -4  -2   5    7.30    2.00
  -4   2  -5   16.80    6.10
   4  -2  -5    7.90    3.00
  -4  -2   5    5.70    8.10
   4  -2  -5   17.60    6.10
   4   2  -5   15.40    7.10
  -4   2   5    9.90    4.40
   4  -2   5   14.30    4.30
   4  -2   5   11.40    4.80
  -4   2   5   13.60    6.40
  -4  -2  -5   12.40    5.60
  -4  -2  -5   14.30    6.10
  -4   3  -5   19.00    6.80
  -4  -3   5   22.30    3.20
   4  -3  -5   13.50    4.10
   4  -3  -5   21.30    6.70
  -4  -3   5   15.60    7.70
   4  -3   5   15.90    4.50
  -4  -3  -5   20.80    6.30
   4  -3   5   16.70    5.70
   4   3  -5   22.30    8.40
  -4  -3  -5   21.00    5.90
  -4   3   5   20.90    4.90
  -4   3   5   21.10    6.40
  -4   4  -5    8.80    8.80
   4  -4  -5   16.90    7.20
  -4  -4   5    7.20    3.50
   4  -4  -5    8.40    4.00
  -4  -4   5    9.10    8.20
   4  -4   5   10.10    4.80
  -4   4   5    5.60    4.90
  -4  -4  -5   16.80    6.10
   4  -4   5    2.00    5.40
  -4  -4  -5   11.20    6.40
   4   4  -5   24.20   10.10
  -4  -4  -5   22.40    6.80
  -4  -5   5   10.00    8.20
   4  -5  -5   11.90    5.50
   4   5   5   11.00    9.80
   4  -5  -5   17.60    7.70
  -4   5  -5   -5.60   11.20
  -4   5  -5    7.80    4.40
  -4  -5   5   15.30    4.50
  -4  -5  -5   14.70    6.00
   4  -5   5   15.10    6.30
  -4  -5  -5   19.10    8.00
  -4   5   5   13.90    7.50
  -4  -5  -5   19.10    6.70
  -4  -5  -5   17.10    7.30
   4  -5   5   18.70    7.40
   4   5  -5   14.90   12.40
   4  -6  -5   14.70    6.50
   4   6   5   13.40   11.10
  -4  -6   5    7.30    5.10
   4  -6  -5   22.50    9.50
  -4  -6   5   16.80   10.00
  -4   6  -5    7.90    3.90
  -4  -6   5   -2.20   12.20
  -4   6  -5  -25.50   12.90
   4  -6   5   13.70    7.70
  -4  -6  -5   20.20    6.90
  -4  -6  -5   25.70   23.00
  -4  -6  -5   16.70    9.80
   4  -6   5   15.80    6.60
  -4  -6  -5   20.30    7.10
  -4  -6  -5   21.60    8.30
   4   6  -5   19.80   13.50
   4   7   5    1.10   13.50
   4  -7  -5    8.10    9.00
   4  -7  -5    1.70    7.50
  -4  -7   5    0.30    9.30
  -4   7  -5   -9.10   14.20
  -4  -7   5    2.80    5.80
  -4  -7   5   -4.10   10.80
  -4  -7  -5   -1.20    9.70
  -4  -7  -5   -6.30    7.80
  -4  -7  -5    4.50    7.80
   4   7  -5    6.30   14.40
   4  -7   5    2.70    7.10
   4  -7   5    0.50    7.80
  -4   7   5   -4.90   15.10
  -4  -7  -5   -1.90    7.30
  -4  -7  -5  -13.70   21.70
  -4   8  -5   -9.10   32.20
   4  -8  -5   27.10    9.60
  -4  -8   5   22.50    7.70
   4   8   5   16.40   14.60
   4  -8  -5   18.40   10.00
  -4  -8   5   11.30   13.70
   4  -8   5   30.00   10.10
  -4  -8  -5   14.00   14.00
   4   8  -5   26.50   18.30
   4  -8   5    9.90    9.40
  -4  -8  -5  -31.60   21.50
  -4  -8  -5   21.70    9.60
  -4   8   5   22.20   15.60
  -4  -8  -5   17.10    9.60
  -4  -9   5    6.90    8.40
   4  -9  -5   11.50   12.40
  -4   9  -5    2.80   32.40
   4  -9  -5   11.30    9.20
  -4  -9   5   -1.50   15.20
   4   9   5    5.70   15.90
  -4  -9  -5   12.90   10.70
   4  -9   5    5.20    9.40
  -4  -9  -5    7.00   21.90
   4  -9   5   23.50   11.40
   4   9  -5   21.40   20.70
  -4  -9  -5   -2.70   15.50
  -4  10  -5   29.20   32.20
  -4 -10   5   30.30   11.00
   4  10   5   31.90   22.50
   4 -10  -5   20.00   14.50
  -4 -10   5   37.50   22.00
   4 -10  -5   29.20   12.50
  -4 -10  -5   17.00   19.40
   4 -10   5   28.80   13.40
   4  10  -5   41.10   24.60
  -4 -10  -5   25.80   12.50
  -5   0   5   -0.20    9.80
  -5   0  -5    1.10    5.80
  -5   0   5   -1.30    1.70
  -5   0  -5    1.70    3.10
   5   0  -5    6.30    6.10
   5   0   5    2.50    3.50
   5  -1  -5  160.88   15.70
  -5   1  -5  155.68   13.80
   5   1   5  151.68   13.50
  -5  -1   5  146.49   12.30
  -5   1  -5  155.38   15.50
  -5  -1   5  101.29   20.70
   5  -1  -5  159.98   13.30
  -5  -1  -5  159.28   15.60
  -5   1   5  162.38   15.20
  -5  -1  -5  151.08   16.00
  -5   1   5  150.38   12.70
   5  -1   5  142.69   14.80
  -5   1   5  165.98   17.80
   5  -1   5  111.09   15.60
   5  -2  -5   19.50    4.20
   5  -2  -5   25.60    7.50
  -5  -2   5    4.80   10.40
  -5   2  -5   23.60    7.00
  -5  -2   5   23.60    3.10
  -5  -2  -5    0.20    8.10
  -5  -2  -5   24.70    7.60
   5  -2   5   19.00    5.70
  -5   2   5   20.40    6.40
  -5   2   5   29.40    7.90
  -5  -3   5  999.20   81.19
   5  -3  -5 1025.80   84.09
   5  -3  -5  999.70   81.79
  -5  -3   5 1034.20   86.79
  -5   3  -5 1034.70   83.69
   5   3  -5  994.70   86.09
  -5   3   5 1007.80   84.49
  -5  -3  -5  998.40   83.39
  -5  -3  -5 1130.09   84.99
  -5   3   5  987.00   82.59
   5  -3   5 1038.00   82.39
   5  -3   5 1070.29   83.99
  -5  -4   5    2.70    3.20
  -5   4  -5    9.10    8.40
  -5  -4   5    1.80    8.50
   5  -4  -5    0.70    7.10
   5  -4  -5   -5.20    4.50
  -5  -4  -5   -0.70    7.70
  -5  -4  -5    6.70    7.60
   5  -4   5    1.90    6.40
   5   4  -5    8.80   10.40
  -5   4   5   -0.20    5.30
   5  -4   5    8.10    5.70
  -5  -4  -5    0.90    6.70
  -5   5  -5    9.40   12.80
  -5  -5   5   15.30   10.20
   5  -5  -5   22.00    6.40
   5  -5  -5   16.50    8.90
  -5  -5   5   20.10    5.00
  -5   5   5   19.90    9.20
   5  -5   5   21.10    7.40
   5  -5   5   14.50    8.40
  -5  -5  -5   19.30    8.70
  -5  -5  -5   22.00    9.00
  -5  -5  -5   19.50    9.60
   5   5  -5   22.90   12.50
  -5  -6   5    8.20   12.40
   5  -6  -5   18.40   10.20
  -5  -6   5   29.90    6.30
   5   6   5   25.50   13.60
  -5   6  -5   18.60    6.00
   5  -6  -5   23.40    7.60
  -5   6  -5   14.60   14.00
   5  -6   5   14.20    7.40
  -5  -6  -5   21.10    9.40
   5   6  -5   26.00   14.70
  -5  -6  -5   15.90    7.20
  -5  -6  -5   30.10    9.60
   5  -6   5   22.50    9.20
  -5  -6  -5   19.60   11.20
  -5  -6  -5   18.80   21.90
  -5  -7   5  420.46   39.90
  -5  -7   5  404.16   33.10
   5   7   5  358.06   42.10
   5  -7  -5  362.76   34.00
   5  -7  -5  392.66   37.00
   5  -7   5  443.16   34.80
  -5  -7  -5  353.86   34.00
   5   7  -5  416.06   45.10
  -5  -7  -5  428.06   36.40
  -5  -7  -5  356.96   35.30
  -5  -7  -5  389.86   39.10
  -5  -7  -5  359.76   55.69
   5  -7   5  396.46   36.20
  -5  -8   5   38.10    8.90
   5   8   5   42.20   20.70
  -5   8  -5  -39.50   31.70
   5  -8  -5   18.50    8.70
   5  -8  -5   26.60   14.10
  -5  -8   5   25.90   15.60
  -5  -8  -5   23.20   15.70
  -5  -8  -5   35.20   10.80
  -5  -8  -5   17.40   27.70
   5   8  -5   25.20   19.30
  -5   8   5   37.40   20.00
  -5  -8  -5   22.90   12.10
   5  -8   5   15.00    9.80
  -5  -8  -5   27.10   13.20
   5  -8   5   52.69   11.70
   5  -9  -5  103.29   21.00
  -5   9  -5   67.89   43.80
   5   9   5  112.49   25.40
   5  -9  -5  110.29   15.40
  -5  -9   5   88.79   24.80
  -5  -9  -5   83.19   22.10
  -5  -9  -5   31.20   30.10
   5   9  -5  127.79   31.40
   5  -9   5  115.59   18.00
  -5  -9  -5  116.29   17.10
   5  -9   5  127.49   17.80
  -6   0   5   28.80   11.60
  -6   0   5   15.50    3.20
  -6   0   5   26.00    8.00
   6   0  -5   48.90    8.80
  -6  -1   5  -10.70   11.50
   6  -1  -5   38.10    9.40
   6  -1  -5   30.70    6.60
   6   1   5   18.40    5.20
  -6   1  -5   35.50    9.10
  -6   1  -5   32.10    5.90
  -6  -1   5   28.20    3.60
  -6   1   5   32.50   10.10
   6  -1   5   48.60   10.00
  -6  -1  -5   41.80    7.70
  -6   1   5   41.40    9.10
  -6  -1  -5   35.00    9.10
  -6   2  -5   20.50    8.60
   6  -2  -5   10.90    7.70
  -6  -2   5    5.00    2.30
   6  -2  -5    5.60    4.30
  -6  -2   5   -6.40   10.40
  -6  -2  -5   40.00    9.80
  -6   2   5   25.10    9.40
  -6   2   5    6.60    6.80
  -6  -2  -5   21.90    8.50
   6  -2   5    5.60    6.20
  -6  -3   5   25.80    3.90
  -6   3  -5   21.80    8.10
  -6  -3   5    5.70   14.00
   6  -3  -5   25.40    9.30
   6  -3  -5   23.50    5.80
  -6   3   5   24.30    7.80
  -6   3   5   24.50    8.90
  -6  -3  -5   33.70   10.40
   6  -3   5   22.10    6.30
  -6  -3  -5    1.00   10.50
   6  -4  -5   19.80    9.30
   6  -4  -5   11.80    5.40
  -6  -4   5   11.60   12.10
  -6  -4   5    7.90    3.90
  -6   4  -5   15.10    9.50
  -6  -4  -5   28.50    9.50
   6  -4   5   25.70    6.90
   6   4  -5   28.20   13.00
   6  -4   5   14.50    8.50
  -6   4   5   15.20    7.20
  -6  -4  -5   11.00    9.70
   6  -5  -5    1.60    5.90
  -6  -5   5    4.90   11.40
  -6  -5   5    0.80    4.60
   6  -5  -5   -0.90    9.10
  -6   5  -5    2.90   11.60
   6  -5   5   -3.10    6.00
   6  -5   5    4.40    9.20
  -6  -5  -5    2.10   10.20
   6   5  -5   10.10   12.90
  -6  -5  -5   -2.00    8.20
  -6  -5  -5   11.30   10.10
  -6   5   5   -1.70    8.40
   6  -6  -5   37.30   12.20
  -6  -6   5   25.00   13.90
   6  -6  -5   26.90    8.40
  -6   6  -5   29.30   17.10
  -6  -6  -5   60.79   12.60
   6  -6   5   39.90   11.90
   6   6  -5   45.90   17.60
  -6  -6  -5   27.10   13.30
  -6  -6  -5   46.10   11.40
   6  -6   5   33.90    8.70
  -6  -6  -5   38.00    9.00
   6  -7  -5    8.70   11.30
  -6  -7   5    0.00   15.50
  -6   7  -5   46.20   20.00
   6  -7  -5   11.60    8.50
  -6  -7  -5   18.30    9.00
   6  -7   5   11.60   11.20
  -6  -7  -5    2.60    9.30
  -6  -7  -5    5.80   13.60
  -6  -7  -5   15.30   11.40
  -6  -7  -5   29.60   25.80
   6  -7   5    5.50    9.10
   6   7  -5   29.70   20.90
  -6  -8   5   20.40   18.20
   6  -8  -5   14.00    9.80
   6  -8  -5   12.00   12.50
  -6  -8  -5   48.90   27.00
  -6  -8  -5    9.20   10.10
  -6  -8  -5   26.50   12.90
   6   8  -5   25.70   20.80
   6  -8   5    5.80   10.30
  -6  -8  -5   -4.80   10.80
   6  -8   5    3.40   11.20
  -6  -8  -5   14.70   15.20
   6  -9  -5   -0.80   10.30
   6  -9  -5   10.10   13.40
  -6   9  -5  -65.49   41.90
  -6  -9   5   -7.40   17.50
  -6  -9  -5   15.80   17.40
  -6  -9  -5   -8.60   17.00
  -6  -9  -5  -65.69   35.80
  -6  -9  -5   -3.10   12.80
   6  -9   5    4.80   11.70
   6   9  -5    9.30   22.00
   6  -9   5    0.70   12.60
  -7   0  -5    2.70    5.40
  -7   0   5   10.40   13.20
  -7   0   5   -6.80    9.10
  -7   0  -5   -0.40    8.50
   7  -1  -5  441.96   40.30
  -7   1  -5  415.96   38.10
  -7  -1   5  444.46   40.20
  -7   1  -5  460.05   40.70
  -7   1   5  497.65   43.30
  -7  -1  -5  468.35   39.10
  -7   1   5  454.95   40.30
  -7  -1  -5  469.15   40.60
  -7   2  -5   35.90   11.60
   7  -2  -5   22.00    9.80
   7  -2  -5   32.80    7.20
  -7  -2   5   10.90   15.40
  -7  -2   5   21.30   12.40
  -7   2   5   30.60   10.00
  -7  -2  -5   41.00   12.00
  -7   2   5   31.60   10.40
   7  -2   5   23.90    9.00
  -7  -2  -5   27.90   10.40
   7  -3  -5  125.99   13.50
   7  -3  -5  151.78   17.80
  -7   3  -5  144.49   17.80
  -7  -3   5   66.09   22.40
   7  -3   5  145.49   15.00
  -7  -3  -5  104.29   19.00
  -7   3   5  163.78   19.70
  -7   3   5  148.09   16.90
  -7  -3  -5  130.09   17.10
  -7   4  -5  130.09   18.50
  -7  -4   5   99.69   25.00
   7  -4  -5  119.99   17.90
   7  -4  -5  137.39   14.00
  -7   4   5  127.39   16.00
  -7  -4  -5  144.79   19.40
   7  -4   5  129.19   14.90
  -7  -5   5  469.05   48.40
  -7   5  -5  457.75   42.10
   7  -5  -5  442.86   41.50
   7  -5  -5  408.96   37.90
  -7  -5  -5  475.25   41.30
  -7  -5  -5  369.66   43.80
   7  -5   5  470.85   41.20
  -7   5   5  497.15   41.30
  -7  -5  -5  432.86   41.00
   7  -5   5  445.16   38.70
  -7   6  -5   16.10   17.70
  -7  -6   5    4.90   17.20
   7  -6  -5    0.30   11.00
   7  -6  -5    4.50    7.90
  -7  -6  -5    3.40    8.40
  -7  -6  -5   -3.00   13.60
   7  -6   5    6.30   11.40
  -7  -6  -5    4.60   12.10
  -7  -6  -5  -15.80   11.40
   7   6  -5    7.50   16.30
   7  -6   5   -2.30    8.40
  -7  -7   5   54.79   22.20
   7  -7  -5   59.59   16.30
   7  -7  -5   70.29   12.60
  -7  -7  -5   54.79   15.60
  -7  -7  -5   65.69   12.90
   7  -7   5   52.79   11.80
   7   7  -5   79.69   24.20
  -7  -7  -5   80.19   16.90
   7  -7   5   64.19   16.00
  -7  -7  -5  101.99   28.20
  -7  -7  -5   55.19   18.90
  -7  -8   5   14.90   21.00
   7  -8  -5    9.20   10.60
   7  -8  -5    3.60   13.70
   7   8  -5   23.90   25.40
  -7  -8  -5    7.80   17.70
  -7  -8  -5    1.10   11.10
  -7  -8  -5   73.19   25.90
  -7  -8  -5    5.40   13.70
   7  -8   5   12.40   11.10
   7  -8   5   -2.70   11.40
  -7  -8  -5   -2.70   15.10
  -8   0  -5    8.60    6.30
  -8   0  -5   22.70   12.40
  -8   0   5    7.80   11.40
  -8   0   5   14.40   14.40
  -8  -1   5   14.60   12.50
  -8   1  -5   10.30   10.50
  -8   1  -5   11.40    6.70
  -8  -1   5   -4.40   16.30
  -8  -1  -5   11.80   10.80
  -8   1   5   18.50   13.00
  -8  -1  -5    8.80    8.40
  -8   1   5    1.20   10.70
   8  -2  -5   54.59   13.50
  -8   2  -5   87.79   15.30
   8  -2  -5   60.99   11.60
  -8  -2   5   57.69   14.20
  -8  -2  -5   89.99   15.00
  -8   2   5   64.69   14.70
  -8   2   5   60.69   13.10
   8  -2   5   52.79   13.40
  -8  -3   5   14.40   12.80
  -8   3  -5    3.10    9.80
   8  -3  -5   10.00   11.10
   8  -3  -5    1.30    7.10
  -8  -3   5    1.30   18.20
  -8   3   5   10.50   11.70
  -8  -3  -5    0.60   12.40
   8  -3   5    4.60    8.80
  -8   3   5    5.00   10.40
  -8  -4   5   12.80   16.80
   8  -4  -5   16.00    8.00
  -8  -4   5   27.40   14.40
   8  -4  -5   16.90   12.00
  -8   4  -5   25.80   12.40
   8  -4   5   33.30    9.30
  -8   4   5   24.40   11.10
  -8  -4  -5   60.09   15.20
   8  -5  -5    9.10   12.20
  -8   5  -5    9.20   13.40
  -8  -5   5   -3.10   16.30
  -8  -5   5   -3.00   17.60
   8  -5  -5   -0.50    7.40
   8  -5   5    0.20    8.90
  -8  -5  -5  -10.90   11.60
  -8  -5  -5   10.60   11.90
  -8   6  -5   21.70   17.20
  -8  -6   5   13.20   18.60
  -8  -6   5   19.60   16.60
   8  -6  -5   18.60    9.10
   8  -6  -5   25.20   13.80
  -8  -6  -5   16.10   15.30
   8  -6   5    8.90   10.30
  -8  -6  -5   14.80    9.50
  -8  -6  -5    7.10   13.30
   8  -7  -5    0.40   13.40
  -8  -7   5    5.40   19.80
  -8  -7   5    7.10   21.70
   8  -7  -5    4.90    9.50
  -8  -7  -5    7.10   15.50
  -8  -7  -5   -8.20   14.90
   8  -7   5   -9.60    8.80
  -9   0   5    3.20   14.70
  -9   0  -5   -9.70   11.90
  -9   0   5   -4.90   13.30
  -9   1  -5  274.37   30.70
  -9  -1   5  278.67   31.20
  -9  -1   5  277.97   37.10
  -9   1   5  276.87   31.90
  -9   1   5  274.67   29.90
  -9  -1  -5  261.07   30.80
  -9  -2   5   12.00   23.30
  -9  -2   5   54.39   18.30
  -9   2  -5   40.40   16.00
  -9  -2  -5   59.89   16.80
  -9   2   5   53.69   14.60
  -9   2   5   62.09   16.00
  -9  -3   5  209.28   28.40
  -9   3  -5  185.98   26.00
   9  -3  -5  198.78   26.40
   9  -3   5  212.88   23.20
  -9  -3  -5  192.88   24.40
  -9   3   5  194.28   24.30
  -9   3   5  195.78   26.80
  -9   4  -5   42.10   16.10
  -9  -4   5   32.40   20.20
  -9  -4   5   39.30   22.20
   9  -4  -5   22.10   14.30
   9  -4   5   24.50   11.20
  -9   4   5   17.30   12.80
  -9  -4  -5   33.80   14.70
  -9  -5   5   79.59   25.50
   9  -5  -5  169.98   22.90
  -9  -5   5  171.58   29.70
  -9   5  -5  159.68   25.40
  -9  -5  -5  145.89   23.80
   9  -5   5  132.49   18.30
  -9  -5  -5  130.39   21.90
  -9  -6   5   33.10   24.00
  -9  -6   5   54.19   24.30
   9  -6  -5   40.50   16.40
  -9  -6  -5   36.50   20.10
   9  -6   5   62.69   13.80
 -10   0   5   73.99   17.60
 -10   0   5   74.89   20.50
 -10   0  -5   86.19   18.40
 -10  -1   5   -3.80   16.40
 -10   1  -5    2.90   13.80
 -10  -1   5    8.70   18.80
 -10   1   5   10.20   16.30
 -10   1   5    6.60   15.00
 -10  -1  -5   -5.30   16.70
 -10  -2   5   -5.60   21.00
 -10  -2   5   30.00   19.10
 -10   2  -5   16.20   16.20
 -10   2   5   27.00   15.70
 -10   2   5   21.80   16.90
 -10  -2  -5    3.80   17.10
 -10  -3   5   -2.00   19.40
 -10   3  -5   11.50   15.10
 -10  -3   5  -36.70   22.70
 -10   3   5    8.80   15.20
 -10   3   5   10.70   14.90
 -10  -3  -5    0.10   17.60
  10  -4  -5   40.90   16.20
 -10  -4   5   -9.50   24.80
 -10   4  -5   20.20   16.40
 -10  -4   5   29.60   18.20
 -10  -4  -5   30.00   18.30
 -10  -4  -5   48.80   17.30
  10  -4   5   39.30   14.30
   0   0   6 1775.72  137.39
   0   0   6 1583.74  136.99
   0   0  -6 1837.02  137.59
   0   0  -6 1744.63  137.29
   0   0  -6 1688.63  137.29
   0   0   6 1657.23  137.39
   0   0   6 1797.92  137.59
   0   0  -6 1672.03  137.59
   0  -1  -6    0.60    2.80
   0   1   6   -0.50    2.00
   0   1   6    2.00    2.00
   0  -1   6   -0.30    2.30
   0   1   6   -2.20    3.20
   0   1  -6    0.70    2.20
   0  -1  -6   -0.50    1.70
   0   1  -6   -8.50    2.90
   0   1  -6    1.10    2.50
   0   1  -6    0.00    1.40
   0   1  -6   -7.50    4.50
   0  -1   6    2.20    2.40
   0   1   6   -1.20    4.10
   0  -1   6    0.90    1.50
   0   1  -6   -6.80    3.50
   0  -1  -6   -5.40    4.00
   0  -1  -6    0.70    2.90
   0  -2  -6   27.30    4.10
   0   2  -6   30.70    3.80
   0   2  -6   17.50    8.40
   0   2   6   33.30    5.50
   0  -2   6   31.70    3.20
   0  -2  -6   30.60    4.20
   0   2   6   23.20    3.40
   0   2  -6   28.40    3.20
   0   2  -6   20.60    2.30
   0   2  -6   36.50    6.30
   0  -2   6   32.70    5.70
   0  -2   6   14.60    3.60
   0   2   6   28.20    2.80
   0  -2  -6    9.00    4.80
   0  -2  -6   26.80    3.00
   0  -2  -6   12.40    6.20
   0  -2   6   23.20    4.10
   0   3  -6    2.80    7.70
   0   3   6   -1.10    3.00
   0  -3   6   -0.70    2.30
   0  -3  -6   -7.40    3.90
   0   3  -6    8.00    4.90
   0  -3  -6    2.70    2.70
   0  -3  -6   -1.00    4.30
   0   3  -6   -5.50    2.30
   0   3  -6    0.50    1.40
   0  -3  -6    0.00    1.50
   0  -3  -6   -4.30    5.00
   0  -3   6    2.50    2.50
   0  -3   6    0.30    1.30
   0   3   6    0.80    2.90
   0  -4  -6  614.04   48.70
   0  -4  -6  626.34   51.69
   0  -4  -6  503.85   50.59
   0   4   6  631.94   49.90
   0   4  -6  553.54   49.90
   0  -4   6  625.74   48.60
   0   4   6  702.53   49.40
   0   4  -6  603.64   54.69
   0  -4   6  586.24   48.40
   0  -4   6  617.24   48.30
   0  -4  -6  572.74   48.00
   0  -5  -6    7.10    6.50
   0   5   6    0.10    5.70
   0  -5  -6   -0.10    2.50
   0  -5  -6   -1.60    3.50
   0  -5  -6   -2.30    3.80
   0   5  -6    5.30   11.00
   0  -5   6    0.40    2.80
   0   5  -6   22.80    5.90
   0   5   6   -1.20    2.90
   0  -5  -6  -10.40    5.90
   0  -5   6   -0.90    3.40
   0  -6  -6  624.24   61.39
   0   6  -6  799.82   69.59
   0  -6  -6  792.42   59.69
   0  -6   6  748.63   60.19
   0  -6  -6  769.42   63.59
   0  -6   6  768.82   60.39
   0   6   6  728.13   63.09
   0  -6  -6  746.93   60.59
   0   7  -6   18.70   15.50
   0  -7  -6    2.60    4.60
   0  -7  -6   -0.90    5.80
   0  -7  -6    1.00    3.90
   0  -7  -6    7.00    9.40
   0  -7   6   -1.70    4.20
   0   7   6    2.80    9.10
   0  -7   6   -2.90    5.40
   0  -8  -6   47.80   12.40
   0   8   6   40.10   14.30
   0  -8   6   46.60    8.50
   0   8  -6   53.99   19.90
   0  -8   6   37.00    8.70
   0  -8  -6   38.90    9.20
   0  -9  -6   -8.60    8.80
   0   9  -6   25.60   21.20
   0  -9  -6    7.40   10.10
   0  -9   6    4.00    8.90
   0   9   6   -5.80   13.40
   0 -10  -6  229.38   29.20
   0  10  -6  300.87   40.30
   0 -10   6  275.47   26.50
   0 -10  -6  260.27   26.90
  -1   0   6  161.78   13.70
  -1   0   6  139.69   16.20
  -1   0   6  146.69   13.30
   1   0  -6  164.78   13.80
  -1   0  -6  143.89   13.60
   1   0   6  177.08   14.00
   1   0  -6  171.68   13.80
  -1   0  -6  159.88   13.80
   1   0  -6  159.38   13.50
  -1   0   6  155.98   13.60
  -1   0   6  163.48   13.50
  -1   0  -6  164.18   13.50
   1   0  -6  142.09   15.60
  -1  -1   6   24.30    4.60
  -1  -1   6   21.80    2.60
   1  -1  -6   21.10    4.20
   1   1   6   24.30    3.80
  -1   1  -6   28.10    6.20
  -1  -1   6   19.80    3.10
  -1   1  -6   19.80    3.30
   1  -1  -6   25.00    3.90
  -1   1  -6   20.10    3.00
   1   1   6   27.50    3.60
  -1  -1   6   21.10    3.60
   1  -1  -6   22.70    4.10
  -1  -1   6   24.50    5.00
  -1  -1   6   22.60    2.40
   1   1  -6   23.50    4.70
  -1   1   6   24.50    4.80
  -1  -1  -6   22.30    3.70
   1  -1   6   22.30    5.30
   1  -1   6   23.50    3.50
  -1   1   6   22.20    3.90
   1  -1   6   26.80    3.40
   1   1  -6   19.60    2.60
  -1   1   6   18.80    2.50
   1   1  -6   19.20    2.30
   1   1  -6   19.50    3.20
  -1   1   6   22.30    3.70
   1  -1   6   20.10    3.00
  -1  -1  -6   19.30    3.30
  -1   1   6   25.40    3.00
  -1  -1  -6   21.30    3.00
   1   1  -6   21.90    4.90
  -1  -2   6    5.90    3.10
  -1  -2   6    4.30    3.20
  -1  -2   6    4.60    0.90
  -1   2  -6    0.30    2.40
  -1  -2   6    4.80    1.60
   1   2   6    6.90    2.30
   1  -2  -6    6.20    3.50
  -1  -2   6    0.80    2.50
   1  -2  -6    9.00    3.00
   1  -2  -6    7.70    2.30
  -1   2  -6    2.60    1.80
   1   2   6    3.80    2.50
  -1   2  -6   -3.20    4.90
  -1   2  -6    1.40    1.20
  -1  -2   6    5.10    1.90
   1  -2  -6    4.90    3.20
  -1   2   6    2.20    1.00
  -1  -2  -6    6.90    3.20
  -1   2   6    4.40    2.80
   1   2  -6    5.30    1.60
  -1  -2  -6    5.30    2.30
   1   2  -6    7.00    5.50
   1   2  -6    6.20    3.00
  -1   2   6    6.70    3.20
   1   2  -6    5.90    2.20
  -1  -2  -6    5.40    6.80
  -1   2   6    2.10    2.30
  -1  -2  -6    3.80    2.60
   1  -2   6   -1.60    4.40
   1  -2   6    6.20    2.40
   1  -2   6    3.80    1.70
  -1  -3   6   55.89    5.00
  -1  -3   6   51.59    7.80
   1   3   6   58.39    6.80
   1  -3  -6   62.79    8.10
  -1  -3   6   52.99    5.60
   1  -3  -6   62.79    6.20
   1   3   6   57.79    7.40
  -1  -3   6   55.29    5.90
   1  -3  -6   64.29    6.90
  -1   3  -6   62.29    6.00
   1  -3   6   51.99    5.90
  -1   3   6   52.89    7.40
   1   3  -6   60.39    5.60
   1  -3   6   58.79    6.00
   1   3  -6   75.89   11.10
  -1  -3  -6   55.29    6.80
  -1  -3  -6   57.69   13.00
  -1  -3  -6   48.60    6.00
  -1   3   6   56.39    7.00
  -1  -3  -6   60.89    8.20
  -1   4  -6  -16.40   10.90
  -1   4  -6    8.40    3.60
   1  -4  -6   16.40    4.00
  -1  -4   6    6.80    3.10
  -1   4  -6   14.20    1.90
  -1   4  -6   15.80    7.80
   1   4   6    7.90    5.30
  -1  -4   6    8.60    2.50
   1  -4  -6   12.10    5.30
  -1  -4   6    7.90    2.30
  -1  -4   6    6.70    5.70
   1  -4  -6   13.10    4.10
   1   4  -6   21.80    9.00
   1  -4   6    9.40    3.20
  -1  -4  -6   10.00    3.50
  -1   4   6   -1.90    4.60
   1  -4   6    9.30    3.90
  -1  -4  -6    1.10    9.20
  -1   4   6    6.30    4.80
  -1  -4  -6   21.30    4.40
  -1  -4  -6   17.80    4.90
   1  -5  -6   58.19    7.10
  -1   5  -6   65.19   10.30
   1  -5  -6   57.89    9.60
   1  -5  -6   66.19    7.50
  -1  -5   6   55.79    6.10
  -1  -5   6   51.19    5.80
  -1   5  -6   32.30    7.60
  -1   5  -6   25.60   16.00
  -1  -5   6   54.99    6.80
   1   5   6   54.29   10.20
  -1   5   6   54.59    7.80
   1   5  -6   76.29   15.20
  -1  -5  -6   60.39    7.70
  -1  -5  -6   36.20   13.20
   1  -5   6   48.20    6.70
  -1   5   6   47.30    9.30
  -1  -5  -6   52.29    6.90
   1  -5   6   41.80    6.70
  -1  -5  -6   56.29    9.10
  -1  -6   6    9.40    5.30
  -1   6  -6   13.90   15.00
  -1  -6   6    4.00    3.80
   1  -6  -6   11.30    3.60
   1  -6  -6   14.70    7.90
  -1  -6   6    2.80    2.20
   1  -6  -6    7.50    5.80
  -1  -6   6   14.70    2.90
   1   6   6    8.00    8.50
  -1  -6  -6    9.10   10.00
  -1   6   6    9.20    7.50
   1  -6   6    7.10    4.60
  -1  -6  -6    8.00    6.80
  -1  -6  -6    9.20    4.80
  -1  -6  -6    4.00    5.70
   1   6  -6   24.90   13.60
  -1   6   6    2.10    3.80
   1  -6   6    6.40    4.90
   1  -7  -6   47.50    8.40
  -1  -7   6   30.40    6.60
  -1  -7   6   50.99    8.50
   1  -7  -6   54.29    6.70
   1  -7  -6   44.30   10.40
   1   7   6   40.60   12.60
  -1   7  -6   60.49   20.70
   1   7  -6   62.29   17.40
  -1  -7  -6   56.59   14.30
  -1  -7  -6   60.69    8.00
   1  -7   6   46.40    7.80
  -1   7   6   42.90   11.70
  -1  -7  -6   40.10   10.90
  -1  -7  -6   54.09    9.00
   1  -7   6   40.00    8.10
   1  -8  -6    2.40    7.00
   1   8   6    5.10   12.40
  -1  -8   6   -4.20    6.90
   1  -8  -6    6.30    9.50
  -1   8  -6   16.30   21.70
   1   8  -6    8.80   15.50
   1  -8   6    4.00    7.90
  -1  -8  -6    9.80   12.00
  -1  -8  -6    2.10    7.10
   1  -8   6   -1.80    6.00
  -1   8   6   -4.30   11.00
   1   9   6   35.40   17.80
   1  -9  -6   44.60   11.30
  -1  -9   6   27.80    9.20
   1  -9  -6   34.50   13.10
  -1   9  -6   31.20   23.60
  -1   9   6   26.70   14.80
  -1  -9  -6   36.20   13.90
  -1  -9  -6   35.50   10.90
   1   9  -6   59.99   21.20
   1  -9   6   44.90   10.60
  -1 -10   6    4.30   18.10
  -1  10  -6   17.70   24.90
   1 -10  -6    7.90   11.70
   1 -10  -6    1.70   11.00
   1  10   6  -12.00   15.60
  -1 -10   6    4.30    8.50
   1 -10   6   -0.60    9.00
  -1 -10  -6    5.20   13.00
  -1 -10  -6   -6.40   11.00
   1  10  -6   14.00   24.00
  -2   0  -6   27.50    4.20
  -2   0   6   27.50    4.50
   2   0  -6   30.00    4.20
  -2   0   6   12.30    6.80
  -2   0  -6   23.00    4.30
  -2   0  -6   26.90    4.50
   2   0  -6   20.20    2.10
  -2   0   6   23.70    3.80
   2   0  -6   22.80    3.90
   2   0  -6   25.60    4.70
   2   1   6  594.64   41.80
  -2  -1   6  533.95   41.20
   2  -1  -6  514.15   41.60
  -2   1  -6  547.55   41.30
   2  -1  -6  509.85   40.70
  -2  -1   6  491.05   41.50
  -2   1  -6  535.05   41.70
  -2   1  -6  517.75   41.50
  -2  -1   6  548.55   43.80
   2  -1  -6  507.25   41.80
  -2   1  -6  535.85   42.00
  -2  -1   6  468.75   42.10
  -2   1   6  507.65   41.70
  -2   1   6  525.85   41.50
  -2  -1  -6  444.36   41.50
  -2   1   6  444.86   41.50
   2  -1   6  508.55   41.80
   2   1  -6  521.75   42.70
  -2   1   6  555.54   43.30
   2   1  -6  452.35   41.40
   2  -1   6  504.95   41.20
   2   1  -6  513.45   41.20
  -2  -1  -6  525.15   41.60
   2   2   6 1291.87  116.89
   2  -2  -6 1497.65  117.09
   2  -2  -6 1455.95  117.59
  -2  -2   6 1455.65  117.99
  -2   2  -6 1372.76  116.99
  -2  -2   6 1670.43  116.59
  -2  -2   6 1344.87  116.09
   2  -2  -6 1498.65  116.39
  -2  -2   6 1480.15  116.99
  -2   2  -6 1540.45  116.89
  -2   2  -6 1604.84  118.29
  -2  -2  -6 1489.15  116.99
   2   2  -6 1475.45  118.79
  -2   2   6 1475.85  116.39
   2  -2   6 1449.26  116.59
  -2  -2  -6 1511.25  117.39
  -2   2   6 1433.36  117.89
   2   2  -6 1475.35  116.09
  -2   2   6 1263.67  116.99
  -2  -2  -6 1657.63  118.39
  -2   3  -6    2.20    2.20
  -2  -3   6   -1.30    2.40
  -2  -3   6   -1.90    4.60
  -2  -3   6   -0.10    1.90
   2  -3  -6   -0.80    2.70
  -2   3  -6  -10.50    7.70
   2  -3  -6    1.10    4.10
   2  -3  -6   -0.40    2.40
  -2   3  -6    0.30    2.90
   2   3   6   -0.40    4.60
  -2  -3   6    0.00    1.90
  -2   3   6   -2.60    4.60
  -2  -3  -6   -2.80    3.20
  -2  -3  -6    2.30    3.40
   2  -3   6    0.70    2.80
   2  -3   6    2.50    3.20
  -2   3   6    5.70    2.40
  -2   3   6    3.50    2.00
   2   3  -6    1.00    1.90
   2   3  -6    7.90    7.00
  -2  -4   6  342.87   28.40
  -2  -4   6  350.26   25.70
   2   4   6  298.57   28.00
  -2  -4   6  309.27   26.00
   2  -4  -6  326.97   26.10
  -2   4  -6  341.77   25.70
   2  -4  -6  304.87   27.60
   2  -4  -6  338.57   26.30
  -2   4  -6  228.98   29.90
   2   4  -6  321.77   30.40
  -2  -4  -6  250.87   32.90
   2  -4   6  297.17   26.30
   2  -4   6  331.37   26.30
  -2  -4  -6  305.07   26.30
  -2   4   6  283.47   28.60
  -2  -4  -6  311.47   26.80
   2   5   6   -3.10    7.10
  -2  -5   6   -2.20    3.60
  -2  -5   6    0.30    2.80
   2  -5  -6    1.50    3.00
  -2  -5   6   -1.00    6.40
  -2  -5   6    4.60    3.70
   2  -5  -6    1.40    4.20
   2  -5  -6   -0.50    5.60
  -2   5  -6   -2.60    9.70
  -2  -5  -6   -0.80    4.00
  -2  -5  -6    3.60    4.90
  -2   5   6    3.00    7.00
  -2  -5  -6   -6.50   11.10
   2  -5   6   -1.30    4.00
   2  -5   6   -2.30    4.00
  -2  -5  -6   -2.00    4.50
   2   5  -6   12.90    9.30
  -2  -6   6  152.48   15.30
   2  -6  -6  190.68   18.80
  -2   6  -6  186.88   20.70
  -2  -6   6  174.78   20.00
   2  -6  -6  185.88   16.60
   2   6   6  186.08   20.90
  -2  -6   6  178.48   15.90
  -2   6  -6  126.59   31.40
   2  -6  -6  183.68   15.80
  -2  -6   6  169.38   15.80
  -2  -6  -6  127.89   25.80
  -2  -6  -6  162.48   16.10
   2  -6   6  192.38   16.80
   2  -6   6  166.28   16.60
  -2   6   6  175.98   20.40
  -2  -6  -6  167.98   16.80
   2   6  -6  193.58   23.60
  -2  -6  -6  187.78   17.70
   2  -7  -6   85.89   11.50
   2  -7  -6   70.19   13.10
  -2   7  -6   65.79   24.60
  -2  -7   6   75.69   15.10
   2   7   6   74.49   16.10
  -2  -7   6   93.59   10.70
  -2  -7   6   61.99    9.30
   2   7  -6   86.29   20.60
  -2  -7  -6   68.39   18.50
   2  -7   6   75.59   10.40
  -2  -7  -6   81.79   10.90
  -2   7   6   75.59   15.50
  -2  -7  -6   99.69   11.70
   2  -7   6   76.79   10.90
  -2  -7  -6   66.99   12.70
   2   8   6  408.26   43.20
  -2  -8   6  466.85   42.60
  -2   8  -6  413.06   52.39
   2  -8  -6  417.76   40.10
  -2  -8   6  458.35   37.10
   2  -8  -6  445.76   37.30
   2   8  -6  445.46   46.50
   2  -8   6  417.66   37.10
  -2  -8  -6  481.15   37.70
  -2  -8  -6  484.85   43.80
  -2  -8  -6  433.66   37.70
   2  -8   6  395.76   37.50
  -2   8   6  397.16   42.40
  -2  -9   6   12.90   15.60
  -2  -9   6   16.30    8.80
  -2   9  -6   19.10   24.60
   2   9   6    3.20   15.50
   2  -9  -6   32.60   11.90
   2  -9  -6   11.30   10.10
  -2   9   6   14.40   15.60
   2  -9   6   19.00    9.90
  -2  -9  -6   14.90   10.70
   2   9  -6   28.80   19.30
  -2  -9  -6   26.90   15.80
   2 -10  -6   42.40   15.70
  -2  10  -6   76.99   32.60
   2  10   6   41.40   20.50
   2 -10  -6   40.90   13.30
  -2 -10   6   55.99   12.30
  -2 -10   6   45.60   22.30
   2  10  -6   55.29   25.70
   2 -10   6   50.29   12.10
  -2 -10  -6   45.60   13.40
  -2 -10  -6   49.80   17.40
   3   0  -6  134.89   10.80
   3   0   6  133.09   10.90
   3   0  -6  134.69   12.60
  -3   0  -6  133.09   12.70
  -3   0   6  131.09   13.20
  -3   1  -6   11.60    4.40
   3  -1  -6    7.80    3.90
  -3  -1   6    2.00    6.40
   3  -1  -6    5.10    1.80
  -3  -1   6    3.80    3.00
  -3   1   6    5.60    4.00
   3   1  -6    5.40    3.40
   3  -1   6    4.90    3.10
  -3   1   6    4.10    1.80
  -3  -1  -6   10.00    4.20
   3  -1   6    6.80    2.50
   3   1  -6    7.80    4.70
  -3   1   6    5.30    5.40
  -3  -1  -6   -4.00    2.90
  -3  -1  -6    8.80    3.90
  -3  -2   6  119.49   10.00
   3  -2  -6  128.19   11.90
   3  -2  -6  128.19   12.70
  -3   2  -6  133.79   12.80
  -3  -2   6  124.09   14.10
   3  -2  -6  125.19   10.60
  -3  -2   6  121.59   11.30
  -3   2  -6  117.39   11.30
   3  -2   6   94.39   11.20
  -3  -2  -6  113.39   11.70
  -3  -2  -6  124.39   11.90
  -3   2   6  122.59   10.50
   3  -2   6  127.19   11.30
  -3   2   6  141.69   13.80
  -3  -2  -6  134.19   11.40
   3   2  -6  128.09   14.30
  -3   2   6  124.39   11.10
   3  -3  -6    8.90    4.90
  -3   3  -6    9.80    7.10
   3  -3  -6    8.10    3.90
  -3  -3   6    3.70    2.90
  -3  -3   6    5.10    5.50
  -3  -3   6    6.50    2.20
  -3   3  -6    5.10    3.00
   3  -3  -6    6.20    3.20
  -3   3   6    2.80    2.70
  -3   3   6    5.10    5.00
   3  -3   6    6.30    4.00
  -3  -3  -6    5.20    4.90
   3  -3   6    2.50    3.70
   3   3  -6   11.50    7.10
  -3  -3  -6    6.30    4.40
  -3  -4   6   41.30    9.20
   3   4   6   43.30    9.40
  -3   4  -6   33.90    5.20
   3  -4  -6   38.30    8.00
  -3  -4   6   46.70    5.20
  -3   4  -6   10.90   10.70
   3  -4  -6   43.30    6.20
   3  -4   6   43.20    7.20
  -3  -4  -6   42.00    7.50
   3  -4   6   31.70    5.90
  -3  -4  -6   34.80    6.80
   3   4  -6   58.09   12.60
  -3  -5   6   60.79    6.30
  -3  -5   6   21.20   10.40
  -3  -5   6   40.40    9.60
  -3   5  -6   42.60   14.50
   3  -5  -6   48.70    6.80
  -3   5  -6   30.40    5.30
   3   5   6   51.39   11.80
  -3  -5  -6   76.29   22.70
   3  -5   6   36.40    7.70
  -3  -5  -6   58.39    8.30
   3  -5   6   44.20    7.20
  -3  -5  -6   78.19    7.60
   3   6   6   22.00   11.30
   3  -6  -6   25.40    6.90
  -3  -6   6    8.80    8.70
   3  -6  -6   23.40    9.20
  -3  -6   6   13.50    7.10
  -3   6  -6   -1.20   12.90
  -3  -6   6   17.80    5.30
   3  -6   6    9.00    6.40
  -3  -6  -6   24.00    7.60
   3  -6   6   22.30    6.40
  -3  -6  -6   -0.50   17.20
  -3  -6  -6   14.70    6.90
   3   6  -6   38.30   15.10
  -3  -6  -6   18.70    7.00
  -3   6   6   18.20   11.60
   3  -7  -6   27.90    7.40
   3   7   6   23.50   13.20
  -3  -7   6   26.20    7.10
  -3  -7   6   25.70    6.80
  -3  -7   6   16.90   12.20
  -3   7  -6  -15.10   23.30
   3  -7  -6   28.90   11.00
  -3   7  -6   51.59   13.70
   3  -7   6   26.70    7.70
   3  -7   6   24.90    7.90
  -3  -7  -6   26.40    8.40
  -3  -7  -6   35.10    8.80
  -3   7   6   22.90   12.40
  -3  -7  -6   34.20    8.80
   3   7  -6   32.30   15.90
  -3  -7  -6    4.90   20.50
  -3  -8   6    7.90   12.80
  -3   8  -6    8.50   27.70
  -3  -8   6   -2.20    7.00
   3  -8  -6   13.00   10.00
   3   8   6    0.10   13.80
   3  -8  -6    9.80    7.80
  -3  -8  -6    5.90    7.70
   3   8  -6   20.40   17.00
  -3   8   6    2.20   13.60
  -3  -8  -6    2.50    8.10
  -3  -8  -6  -16.00   19.00
   3  -8   6    0.40    7.70
   3  -8   6   -0.20    7.10
   3  -9  -6   24.80   12.00
   3  -9  -6   25.30    9.60
  -3  -9   6   20.90   16.00
  -3  -9   6   18.60    9.80
   3   9   6   23.00   16.90
  -3   9  -6   19.50   27.90
   3  -9   6   27.80   11.10
  -3  -9  -6   21.60   19.80
   3   9  -6   22.80   20.00
  -3  -9  -6   17.10   10.20
   3  10   6    1.10   18.70
  -3 -10   6    2.00   17.30
  -3  10  -6    1.60   28.40
   3 -10  -6    6.50   11.80
  -3 -10   6   -4.60    9.20
   3 -10  -6   -4.90   12.90
  -3 -10  -6   -9.30   11.30
   3  10  -6   25.50   23.20
  -3 -10  -6   -7.10   17.20
   3 -10   6    1.70   10.30
  -4   0  -6  926.01   72.29
  -4   0   6  867.31   70.29
  -4   0  -6  823.92   70.69
   4   0   6  908.71   70.89
   4   0  -6  940.81   72.19
   4  -1  -6  293.17   25.20
  -4   1  -6  315.87   27.10
   4  -1  -6  326.47   27.30
   4   1  -6  325.27   28.80
  -4   1   6  324.67   29.60
  -4   1   6  288.07   25.10
  -4  -1  -6  339.97   27.30
   4  -1   6  313.27   26.40
   4   1  -6  306.87   26.70
  -4   2  -6  399.16   33.80
  -4  -2   6  385.16   31.50
   4  -2  -6  401.26   34.10
   4  -2  -6  397.16   32.10
  -4  -2   6  404.46   37.00
  -4  -2  -6  410.36   33.70
  -4   2   6  366.06   32.80
   4  -2   6  385.56   32.80
  -4  -2  -6  424.06   33.90
   4   2  -6  400.06   36.10
  -4   2   6  408.76   35.00
   4  -2   6  399.76   33.40
  -4   3  -6  191.78   19.60
   4  -3  -6  205.68   17.20
  -4  -3   6  201.28   21.10
   4  -3  -6  199.28   19.40
  -4  -3   6  207.78   16.60
  -4  -3  -6  202.08   19.20
  -4   3   6  199.68   17.60
  -4   3   6  211.28   20.50
   4  -3   6  207.88   17.70
  -4  -3  -6  193.78   19.00
  -4  -3  -6  205.08   18.80
   4   3  -6  212.88   22.60
   4  -3   6  184.38   18.70
  -4   4  -6  499.65   41.50
  -4  -4   6  494.45   44.20
   4  -4  -6  516.05   41.20
  -4  -4   6  510.45   40.60
   4  -4  -6  494.35   43.10
  -4   4  -6  519.65   44.90
  -4  -4  -6  523.35   43.20
   4  -4   6  484.95   42.40
  -4  -4  -6  504.85   42.60
   4   4  -6  496.55   46.10
   4  -4   6  500.05   41.60
  -4   4   6  519.15   41.60
  -4  -4  -6  503.45   42.70
  -4   5  -6   22.30   13.70
  -4  -5   6   44.50   11.40
   4  -5  -6   62.39   11.70
  -4   5  -6   53.39    7.40
   4  -5  -6   58.69    8.10
  -4  -5   6   58.69    7.20
   4   5   6   65.09   13.60
  -4  -5  -6   54.49    9.50
   4  -5   6   64.29    9.30
  -4  -5  -6   56.49   10.30
  -4  -5  -6   60.69   11.20
   4   5  -6   69.09   16.80
   4  -5   6   65.79   10.30
  -4   5   6   82.69   10.20
  -4  -6   6  238.28   25.20
  -4  -6   6  218.08   19.70
  -4   6  -6  238.28   19.60
   4  -6  -6  233.18   20.40
  -4  -6   6  165.48   26.70
   4   6   6  219.98   26.80
  -4   6  -6  161.58   30.70
   4  -6  -6  231.58   23.10
   4   6  -6  208.28   27.90
   4  -6   6  224.38   20.70
  -4  -6  -6  224.18   21.90
   4  -6   6  223.88   22.00
  -4  -6  -6  242.18   22.50
  -4  -6  -6  259.57   40.90
  -4  -6  -6  242.48   21.10
  -4   7  -6    1.20   16.50
  -4  -7   6   34.90   16.00
   4  -7  -6   33.00   11.90
  -4  -7   6   25.50    7.20
   4  -7  -6   37.00    8.40
   4   7   6   29.30   15.70
  -4  -7   6   25.80   14.30
   4   7  -6   40.30   17.70
  -4  -7  -6   40.50   10.10
   4  -7   6   40.40    9.90
  -4  -7  -6   28.10    8.70
  -4  -7  -6   42.30   27.60
  -4   7   6   31.20   15.40
   4  -7   6   32.70    9.20
  -4  -7  -6   47.50   10.50
  -4  -8   6  158.58   16.80
   4   8   6  169.28   27.40
  -4   8  -6   96.09   43.70
   4  -8  -6  139.49   21.00
  -4  -8   6  162.58   25.40
   4  -8  -6  144.39   17.30
  -4   8  -6  190.38   23.90
   4  -8   6  143.89   19.10
  -4   8   6  153.08   26.40
   4   8  -6  158.28   29.20
  -4  -8  -6  170.48   18.00
  -4  -8  -6  174.08   20.10
   4  -8   6  152.18   16.90
  -4  -8  -6  130.79   18.70
  -4  -8  -6  106.29   34.40
   4  -9  -6   64.49   12.90
  -4  -9   6   49.70   18.70
  -4  -9   6   47.10   10.70
  -4   9  -6   62.09   36.00
   4   9   6   69.99   22.90
   4  -9  -6   71.69   15.60
  -4  -9  -6   51.79   18.90
   4  -9   6   49.00   12.10
  -4  -9  -6   32.40   25.10
   4   9  -6   63.19   24.50
  -4  -9  -6   61.99   12.50
   4 -10  -6  156.58   19.40
  -4 -10   6  106.09   16.10
  -4  10  -6  118.99   45.90
   4 -10  -6  124.39   21.30
   4  10   6  107.19   27.70
  -4 -10   6  130.49   29.30
  -4 -10  -6  120.59   18.60
  -4 -10  -6  106.19   25.30
   4  10  -6  133.29   34.50
   4 -10   6  144.29   20.00
   5   0   6  131.49   12.20
  -5   0  -6  137.69   15.00
   5   0  -6  142.89   14.80
  -5   0  -6  146.89   12.10
  -5   0   6   76.29   17.90
  -5   0   6  132.19   11.10
  -5  -1   6    5.20    1.50
   5  -1  -6    4.60    3.30
   5  -1  -6   10.70    6.10
  -5   1  -6   15.60    7.30
  -5  -1   6    1.00    9.90
  -5   1   6    7.50    6.00
  -5  -1  -6   20.30    7.60
   5  -1   6   16.90    5.50
   5  -1   6    5.90    6.10
  -5   1   6    8.00    8.60
  -5  -1  -6   17.00    4.90
  -5   1   6    4.80    2.50
   5  -2  -6   91.59    9.10
  -5  -2   6   96.49    8.10
  -5   2  -6   96.39   12.50
  -5  -2   6   62.79   17.70
  -5  -2   6   94.79    8.10
   5  -2  -6  102.59   12.50
  -5   2   6   97.79   10.90
  -5  -2  -6   91.69   12.70
   5  -2   6   91.89   10.70
   5   2  -6  103.69   15.80
  -5   2   6  124.69   14.00
  -5  -3   6   36.80   11.80
   5  -3  -6   32.30    5.60
  -5   3  -6   46.70    9.30
  -5  -3  -6   58.69    9.60
   5   3  -6   43.60   11.60
  -5   3   6   39.20    8.90
  -5  -3  -6   35.00    9.10
  -5  -4   6   54.09   13.40
   5  -4  -6   71.99    8.70
  -5  -4   6   62.69    7.20
  -5   4  -6   78.59   13.30
   5  -4  -6   74.89   12.20
  -5  -4  -6   62.49   11.50
  -5  -4  -6   71.19   11.10
  -5   4   6   74.79   12.10
   5   4  -6   63.69   15.10
  -5   4   6   79.59   10.10
   5  -4   6   78.89   11.40
   5  -4   6   75.09   10.00
  -5  -4  -6   64.89   11.80
   5  -5  -6    7.50    7.90
  -5   5  -6    7.10    5.00
  -5  -5   6    8.90   10.00
   5  -5  -6    7.20    5.40
  -5   5  -6   -8.60   12.00
  -5  -5   6   10.60    4.50
  -5  -5  -6    7.30    8.70
   5  -5   6    7.20    6.80
  -5   5   6   -6.90    7.50
   5  -5   6    1.80    6.70
   5   5  -6   18.90   12.40
  -5  -5  -6   12.80    8.80
  -5  -5  -6    2.70    7.20
  -5   6  -6    7.00   13.60
  -5  -6   6   16.80   13.10
   5  -6  -6    9.10    6.80
   5  -6  -6   24.40   10.30
  -5  -6   6   14.80    5.50
  -5  -6  -6   17.50    8.40
   5  -6   6   18.40    8.10
  -5  -6  -6   21.70    7.80
  -5  -6  -6   20.30   11.00
   5   6  -6   16.10   14.70
  -5  -6  -6   31.50   26.10
  -5  -6  -6   11.70    9.20
   5  -7  -6   49.30    9.40
  -5   7  -6  -36.00   18.50
  -5  -7   6   36.10   15.90
   5   7   6   28.20   15.00
  -5  -7  -6   55.09   11.70
   5   7  -6   71.49   21.60
  -5  -7  -6   44.80    9.50
   5  -7   6   40.30   11.20
  -5  -7  -6   43.40   14.20
   5  -7   6   37.50    9.50
  -5  -7  -6   56.19   27.20
  -5  -8   6    6.60   14.70
   5  -8  -6   10.50   13.00
  -5   8  -6  -58.19   30.70
   5   8   6   -2.40   14.90
  -5  -8   6    5.20    7.40
   5  -8  -6    3.70    8.90
   5   8  -6   18.90   21.40
   5  -8   6    4.30    8.70
  -5  -8  -6    5.80    9.70
  -5  -8  -6    0.10   10.20
   5  -8   6    0.80    9.40
  -5  -8  -6   13.50   14.70
  -5  -8  -6    4.30   27.00
  -5  -8  -6    9.70   10.40
   5  -9  -6   19.80   10.70
  -5   9  -6   -9.30   35.10
   5  -9  -6   20.40   15.00
  -5  -9   6   22.50   20.00
   5   9   6   28.80   21.00
   5  -9   6   19.40   12.70
   5  -9   6   20.00   10.70
  -5  -9  -6   14.00   16.50
   5   9  -6   38.70   23.10
  -5  -9  -6   11.10   11.20
  -5  -9  -6  -27.40   26.80
  -6   0   6  998.80   78.59
  -6   0  -6  921.51   76.79
   6   0   6  918.11   76.89
  -6   0   6  808.02   82.69
  -6   0  -6  997.50   78.79
  -6   0   6  967.20   75.79
   6   0  -6 1063.39   78.99
  -6   1  -6  222.98   21.30
   6  -1  -6  194.88   20.50
  -6  -1   6  195.58   16.50
   6  -1  -6  207.28   18.50
  -6  -1  -6  197.98   20.40
  -6   1   6  216.68   20.40
   6  -1   6  212.88   20.30
  -6  -1  -6  219.68   19.00
  -6   1   6  214.68   24.50
  -6   1   6  193.08   18.00
   6  -1   6  180.78   20.60
  -6  -2   6  262.57   22.20
   6  -2  -6  289.17   27.00
   6  -2  -6  255.87   23.40
  -6   2  -6  294.77   26.50
  -6  -2   6  276.37   22.20
  -6   2   6  302.27   28.60
  -6   2   6  294.87   25.50
  -6  -2  -6  272.47   26.00
   6  -2   6  274.97   24.40
  -6  -3   6    8.60   14.30
   6  -3  -6   20.60    8.70
   6  -3  -6   27.30    5.50
  -6  -3   6   24.00    3.60
  -6   3  -6   25.60    9.50
  -6  -3  -6   21.40    9.00
  -6  -3  -6   -1.00    9.80
  -6   3   6   19.10    7.50
  -6   3   6   30.90    9.60
   6  -3   6   27.00    7.20
  -6  -4   6  272.37   21.60
   6  -4  -6  277.67   26.30
  -6   4  -6  253.87   26.00
   6  -4  -6  270.37   22.80
  -6  -4   6  258.77   30.10
  -6   4   6  269.67   26.40
  -6  -4  -6  265.67   25.90
   6   4  -6  281.97   30.30
  -6  -4  -6  237.18   27.40
  -6   4   6  233.18   23.90
   6  -4   6  258.27   23.60
  -6  -4  -6  237.08   25.40
  -6  -5   6   10.50    4.60
   6  -5  -6   17.80   10.40
   6  -5  -6    0.30    5.80
  -6  -5   6    5.60   12.00
  -6   5  -6    9.40   12.50
   6   5  -6   13.30   13.90
  -6  -5  -6    8.20    9.10
  -6  -5  -6    8.10    8.80
   6  -5   6   14.30    9.70
  -6   5   6    4.20    8.50
   6  -5   6   13.10    7.90
  -6  -5  -6   12.00   10.60
  -6   6  -6  250.57   36.00
   6  -6  -6  349.96   33.20
   6  -6  -6  337.27   29.20
  -6  -6   6  316.67   35.70
   6  -6   6  343.07   30.10
   6   6  -6  347.87   38.70
  -6  -6  -6  336.67   29.50
  -6  -6  -6  342.77   31.80
   6  -6   6  347.47   32.50
  -6  -6  -6  333.27   35.00
  -6  -6  -6  319.87   31.80
   6  -7  -6   47.60   15.70
  -6   7  -6   57.09   22.00
  -6  -7   6   49.20   19.50
   6  -7  -6   46.10   10.70
   6   7  -6   65.09   22.00
   6  -7   6   57.79   14.00
  -6  -7  -6   46.10   16.10
  -6  -7  -6   49.70   13.70
  -6  -7  -6   41.90   12.30
   6  -7   6   57.49   12.10
  -6  -7  -6   44.40   10.80
  -6  -7  -6   81.69   30.30
   6  -8  -6   66.19   12.70
  -6  -8   6   49.60   21.30
   6  -8  -6   61.69   16.40
  -6  -8  -6   53.39   13.10
  -6  -8  -6   37.20   12.50
   6  -8   6   68.89   13.90
   6  -8   6   46.50   13.80
  -6  -8  -6   66.49   17.40
  -6  -8  -6   71.19   19.50
  -6  -8  -6   87.99   29.90
   6   8  -6   61.49   24.20
   6  -9  -6   11.60   17.30
   6  -9  -6   19.90   10.00
  -6   9  -6  -48.20   44.90
  -6  -9   6   23.60   21.70
   6  -9   6   12.50   10.50
   6  -9   6    6.60   13.00
  -6  -9  -6   -6.90   28.60
   6   9  -6   40.20   27.60
  -6  -9  -6   12.30   11.60
  -6  -9  -6    2.50   16.70
  -7   0  -6   66.09    9.40
  -7   0   6   84.09   19.30
  -7   0   6   72.79   13.90
  -7   0  -6   63.99   12.80
   7  -1  -6   29.50    9.80
  -7   1  -6   51.29   11.80
  -7  -1   6  -13.90   14.30
   7  -1  -6    2.20    7.60
  -7  -1   6   26.70   10.50
  -7  -1  -6   76.29   12.50
  -7   1   6   46.70   14.30
  -7   1   6   26.70   10.10
  -7  -1  -6   34.70    7.10
   7  -2  -6   61.79    9.30
   7  -2  -6   57.59   12.50
  -7  -2   6   41.40   20.30
  -7   2  -6   60.49   13.50
  -7   2   6   75.99   14.10
  -7   2   6   58.59   12.20
  -7  -2  -6   70.59   13.30
  -7  -2  -6   66.39   12.20
   7  -2   6   50.99   11.30
   7  -3  -6   18.60   11.00
   7  -3  -6    5.60    5.70
  -7   3  -6   13.90   10.00
  -7  -3   6    3.10   15.40
  -7  -3  -6   19.50   10.40
  -7   3   6   14.60   11.10
  -7  -3  -6   40.60   10.30
  -7   3   6   13.10    8.80
   7  -3   6   18.20    7.90
   7  -4  -6   39.20   12.00
   7  -4  -6   42.60    8.00
  -7  -4   6   13.80   17.70
  -7   4  -6   38.90   12.80
  -7  -4  -6   50.99   13.10
  -7  -4  -6   10.40   12.40
  -7   4   6   42.70   13.00
  -7  -4  -6   40.40   12.20
  -7   4   6   34.00   10.10
   7  -4   6   35.50    8.80
  -7   5  -6   46.80   14.90
  -7  -5   6   30.20   18.80
   7  -5  -6   39.60   12.60
   7  -5  -6   35.00    8.50
   7   5  -6   52.59   18.10
  -7  -5  -6   94.59   15.20
  -7  -5  -6   16.00   13.80
   7  -5   6   45.10   10.30
  -7  -5  -6   94.79   15.20
  -7  -6   6   33.60   19.50
   7  -6  -6    8.60   13.50
  -7   6  -6   20.50   17.40
   7  -6  -6    8.40    8.00
  -7  -6  -6   14.80   13.30
   7   6  -6   34.50   19.50
   7  -6   6   19.90    9.60
  -7  -6  -6   21.20    9.30
  -7  -6  -6   23.70   13.10
  -7  -6  -6    2.10   12.30
  -7  -7   6    0.70   19.40
   7  -7  -6   12.80    8.80
   7  -7  -6    9.30   12.80
   7   7  -6   20.70   22.50
  -7  -7  -6   58.39   28.40
  -7  -7  -6    5.10   11.30
  -7  -7  -6   18.10   13.40
  -7  -7  -6   15.50   14.80
  -7  -7  -6   24.40   10.10
   7  -7   6   23.30   11.10
   7  -7   6    5.90   12.00
   7  -8  -6    6.40   10.30
  -7  -8   6   12.70   21.70
   7  -8  -6    7.40   14.40
  -7  -8  -6  -12.30   14.60
   7  -8   6   -6.30    9.40
   7  -8   6   -1.80   11.10
   7   8  -6   10.50   21.30
  -7  -8  -6    7.70   13.50
  -7  -8  -6    6.30   10.40
  -7  -8  -6   87.59   26.90
  -8   0   6   78.79   15.10
  -8   0  -6  101.79   16.40
  -8   0   6   84.79   19.60
  -8   1  -6   11.10   10.80
  -8  -1   6   15.90   12.20
  -8  -1   6   -8.40   18.70
  -8  -1  -6   12.90   11.10
  -8   1   6   39.70   15.50
  -8   1   6   15.70   11.20
  -8   2  -6  619.24   50.59
   8  -2  -6  581.04   50.19
   8  -2  -6  453.25   47.40
  -8  -2   6  605.44   51.69
  -8  -2  -6  527.75   49.30
   8  -2   6  555.04   49.50
  -8   2   6  607.94   52.69
  -8   2   6  573.04   49.50
  -8  -3   6   30.60   15.80
  -8  -3   6    1.90   19.20
  -8   3  -6    8.20   12.30
   8  -3  -6   24.60   11.80
   8  -3  -6   18.60    7.80
  -8  -3  -6   17.00   12.00
  -8   3   6   15.90   11.10
  -8   3   6   30.00   13.50
   8  -3   6   12.80    9.70
  -8  -4   6  105.69   29.20
   8  -4  -6  203.58   23.60
  -8   4  -6  197.18   24.20
   8  -4  -6  194.58   18.90
  -8  -4  -6  196.78   24.50
  -8   4   6  201.98   23.70
  -8  -4  -6  207.48   24.20
   8  -4   6  172.38   19.90
  -8   4   6  195.88   21.90
   8  -5  -6    5.60   12.20
   8  -5  -6    4.20    7.60
  -8  -5   6   10.60   19.80
  -8   5  -6    6.40   13.50
  -8  -5  -6   -3.40   11.60
   8  -5   6    3.20    9.00
  -8  -5  -6   -0.80   12.20
   8  -6  -6   69.79   12.30
  -8  -6   6   76.59   26.70
   8  -6  -6   69.99   17.20
  -8   6  -6   90.19   22.30
   8  -6   6   91.59   14.60
  -8  -6  -6   44.60   16.10
  -8  -6  -6   66.39   12.20
  -8  -6  -6   75.09   19.20
   8  -7  -6   -4.10   13.80
   8  -7  -6    5.50    9.50
  -8  -7   6   10.00   23.50
  -8  -7  -6  -13.50   12.70
  -8  -7  -6   -2.40   16.70
   8  -7   6   15.30   11.10
  -9   0   6   -0.30   12.00
  -9   0  -6    7.70   14.40
  -9   0   6   24.90   16.90
  -9  -1   6   25.70   13.60
  -9   1  -6   47.20   14.00
  -9  -1   6   15.90   19.70
  -9   1   6   38.90   14.50
  -9   1   6   33.00   16.10
  -9  -1  -6   33.90   13.90
  -9  -2   6  -21.60   20.60
  -9   2  -6   26.80   13.00
  -9  -2   6   22.10   14.00
  -9   2   6   31.20   14.20
  -9   2   6   16.60   13.10
  -9  -2  -6   21.90   13.40
  -9   3  -6   27.40   14.70
  -9  -3   6  -31.30   22.00
   9  -3  -6   17.10   13.10
  -9  -3   6   42.50   16.20
   9  -3   6   31.60   12.60
  -9   3   6   27.10   15.20
  -9   3   6    6.70   12.50
  -9  -3  -6   35.90   16.30
   9  -4  -6   18.30   13.80
  -9  -4   6   11.10   18.30
  -9  -4   6   27.20   22.30
  -9   4  -6   18.20   15.10
  -9  -4  -6   29.10   16.00
  -9  -4  -6    8.20   14.10
   9  -4   6   22.90   11.40
   9  -5  -6   25.80   14.80
  -9   5  -6   26.90   16.60
  -9   5  -6   -2.50   10.60
  -9  -5   6   48.60   20.60
  -9  -5   6   32.10   21.30
  -9  -5  -6   28.80   17.10
  -9  -5  -6   16.70   15.00
   9  -5   6   22.50   10.90
   9  -6  -6   -1.20   16.40
  -9  -6   6   52.29   22.80
  -9  -6   6   -0.40   18.40
   9  -6   6   11.30   11.40
  -9  -6  -6    0.10   14.20
 -10   0   6  340.57   39.80
 -10   0   6  412.16   45.90
 -10   0  -6  379.26   39.50
 -10  -1   6    7.90   20.70
 -10   1  -6   -3.70   15.70
 -10  -1   6    0.70   16.20
 -10  -1  -6   -4.20   14.00
 -10   1   6   23.70   18.50
 -10   1   6    2.60   15.10
 -10  -2   6   52.19   27.10
 -10   2  -6   88.89   18.70
 -10  -2   6   87.99   23.30
 -10  -2  -6   88.89   22.90
 -10   2   6  100.79   20.80
 -10   2   6   79.09   20.40
 -10   3  -6   -5.20   15.20
 -10  -3   6  -12.20   16.90
 -10  -3   6  -43.70   22.80
 -10   3   6   -7.40   13.80
 -10   3   6   14.20   15.50
 -10  -3  -6   -7.00   14.40
 -10   4  -6  154.08   27.20
 -10  -4   6  222.78   33.20
  10  -4  -6  144.59   25.30
  10  -4   6  180.48   24.10
 -10  -4  -6  174.58   30.40
   0   0  -7   -2.70    4.40
   0   0   7    3.30    3.50
   0   0  -7   -1.20    4.40
   0   0  -7   -4.50    4.00
   0   0   7    6.10    4.30
   0   0  -7    1.20    3.60
   0   0   7    7.70    4.20
   0  -1  -7   -1.40    3.10
   0  -1   7    3.70    2.90
   0   1  -7   -5.70    4.90
   0  -1  -7   -4.60    3.60
   0   1  -7   -1.40    2.80
   0   1  -7  -13.20    4.40
   0  -1  -7   -6.50    4.10
   0   1   7   -3.00    2.30
   0   1   7   -4.00    3.10
   0   1   7   -0.40    4.40
   0   1  -7   -5.50    3.10
   0   1  -7    2.20    2.60
   0   1  -7    1.90    1.60
   0  -1  -7    0.00    2.20
   0  -1   7    1.90    1.60
   0  -1   7    1.40    2.70
   0   1   7    1.30    2.60
   0  -2   7   50.89    6.70
   0   2  -7   47.40    4.80
   0  -2   7   61.99    6.70
   0  -2  -7   57.89    5.60
   0  -2  -7   63.99    6.10
   0   2  -7   61.99    5.40
   0  -2  -7   44.10    9.60
   0   2   7   55.29    5.30
   0   2  -7   65.79    6.70
   0   2   7   59.69    8.40
   0   2  -7   65.49    8.60
   0  -2   7   67.39    5.60
   0  -2   7   51.59    7.50
   0  -2  -7   68.09    6.50
   0   2  -7   40.30   12.20
   0   3  -7    0.80    1.70
   0  -3  -7   -1.00    1.70
   0  -3  -7   -2.50    4.00
   0  -3   7    2.00    2.40
   0  -3  -7   -3.60    5.70
   0   3  -7   -8.30    7.50
   0  -3   7   -0.70    1.20
   0   3   7   -1.20    2.90
   0   3   7   -1.90    3.10
   0  -3   7    0.80    3.00
   0  -3  -7   -5.40    5.10
   0  -3  -7   -0.40    2.50
   0   3  -7    4.30    5.30
   0   4  -7   55.79   14.20
   0  -4   7   46.10    5.00
   0  -4  -7   67.79    6.60
   0  -4  -7   43.20    4.70
   0  -4  -7   47.00    9.60
   0   4   7   58.29    7.80
   0  -4   7   59.09    6.00
   0   4  -7   64.39    7.70
   0  -4  -7   31.10    9.60
   0  -4  -7   53.19   10.70
   0  -4   7   29.70    5.60
   0  -5  -7    0.60    3.90
   0   5  -7    3.10   12.30
   0  -5  -7    2.50    3.20
   0  -5   7    0.20    2.60
   0  -5  -7   -1.40    2.20
   0  -5  -7   -0.30    7.20
   0  -5  -7  -18.30    6.10
   0   5  -7   18.70    5.40
   0  -5   7    0.40    4.10
   0   5   7   -0.80    5.50
   0  -6  -7  115.99   17.20
   0   6   7  164.38   18.10
   0  -6  -7  169.58   14.80
   0  -6  -7  140.79   13.20
   0  -6  -7  204.28   19.60
   0  -6   7  138.29   13.80
   0   6  -7  220.88   27.10
   0  -6   7  167.48   14.90
   0  -7   7   -2.40    6.10
   0   7   7    3.20    8.60
   0  -7  -7   -1.00    4.20
   0  -7  -7   -3.90    6.50
   0  -7  -7    2.50    5.80
   0  -7   7   -1.70    4.00
   0  -7  -7    4.30    8.80
   0   7  -7    9.10   15.60
   0   8  -7   60.59   21.60
   0  -8  -7   47.50   10.60
   0  -8   7   49.10    9.90
   0   8   7   53.59   14.30
   0  -8  -7   50.49   13.10
   0  -9  -7    3.70   10.50
   0  -9  -7   -1.20    9.40
   0   9  -7   29.90   21.00
   0  -9   7   -8.70    8.60
   0   9   7   -0.80   12.90
   0 -10  -7   66.39   16.40
   0 -10  -7   67.59   13.00
   0  10  -7   90.99   29.70
   0 -10   7   55.09   12.70
   1   0  -7    2.50    4.00
   1   0  -7    1.10    2.30
  -1   0  -7   -0.30    1.80
  -1   0  -7   -3.10    2.10
  -1   0  -7   -5.10    2.30
  -1   0   7    1.30    2.10
  -1   0  -7    0.70    2.70
   1   0  -7    2.50    2.00
   1   0   7   -3.30    2.80
  -1   0   7    0.50    1.90
   1   0   7   -2.00    2.50
   1   0  -7    0.80    2.30
  -1   0   7    0.10    2.10
  -1   0   7    1.70    4.70
  -1   0   7   -0.40    2.10
   1   0   7   -0.90    1.60
  -1  -1   7 1344.57  110.99
   1   1   7 1292.47  111.49
  -1  -1   7 1306.17  111.69
  -1  -1   7 1346.87  111.19
   1   1   7 1572.54  112.19
  -1   1  -7 1289.67  112.79
  -1  -1   7 1444.66  112.59
   1  -1  -7 1464.15  112.29
   1   1   7 1443.16  111.29
   1  -1  -7 1518.85  112.29
  -1  -1   7 1403.76  111.69
   1  -1  -7 1441.16  112.49
  -1   1  -7 1481.95  111.89
  -1  -1   7 1435.56  112.59
  -1   1  -7 1537.15  111.39
  -1  -1  -7 1309.77  111.49
  -1  -1  -7 1418.96  111.99
  -1   1   7 1340.27  110.99
  -1   1   7 1549.05  112.99
   1   1  -7 1390.76  110.89
   1   1  -7 1324.87  112.89
   1  -1   7 1494.75  111.39
  -1  -1  -7 1328.37  111.29
   1  -1   7 1472.15  111.79
  -1   1   7 1321.57  111.39
   1   1  -7 1333.47  111.09
   1  -1   7 1442.86  111.39
  -1   1   7 1402.86  112.09
   1   1  -7 1384.96  111.69
  -1   1   7 1359.96  112.09
  -1  -2   7  380.96   32.40
   1  -2  -7  408.66   32.90
   1  -2  -7  432.06   34.30
   1   2   7  374.16   33.10
  -1   2  -7  417.66   33.00
  -1  -2   7  424.76   34.20
  -1   2  -7  457.15   34.00
   1  -2  -7  431.56   34.60
  -1  -2   7  376.46   32.60
   1   2   7  438.96   33.90
  -1  -2   7  442.66   33.40
   1   2  -7  452.25   32.70
  -1   2   7  421.46   34.30
   1  -2   7  394.26   33.00
   1   2  -7  402.96   33.30
   1   2  -7  408.56   36.10
  -1  -2  -7  385.86   33.30
  -1   2   7  391.46   32.70
  -1  -2  -7  329.67   36.50
  -1  -2  -7  391.16   33.80
   1  -2   7  431.36   33.30
  -1  -2  -7  410.76   33.10
  -1  -2  -7  406.06   33.90
  -1  -3   7 1624.04  125.09
   1   3   7 1713.13  125.99
   1  -3  -7 1615.94  126.79
   1  -3  -7 1602.34  124.89
   1  -3  -7 1645.54  126.09
  -1   3  -7 1443.26  124.89
  -1  -3   7 1605.74  124.69
  -1  -3   7 1589.14  126.19
   1  -3   7 1553.84  124.89
   1   3  -7 1531.65  124.69
   1   3  -7 1639.44  128.99
  -1  -3  -7 1511.95  129.89
   1  -3   7 1536.35  124.79
   1   3  -7 1524.15  124.99
   1  -3   7 1452.95  124.89
  -1  -3  -7 1592.94  126.29
  -1   3   7 1631.74  125.29
  -1  -3  -7 1563.04  125.89
  -1  -4   7  344.97   27.70
   1  -4  -7  339.37   27.80
   1  -4  -7  369.86   30.50
  -1  -4   7  329.17   29.50
  -1   4  -7  326.77   28.00
  -1  -4   7  346.07   27.60
   1   4   7  377.56   29.60
   1  -4  -7  367.76   28.90
  -1   4  -7  286.77   30.80
  -1   4  -7  369.16   27.30
  -1  -4   7  303.17   27.00
  -1   4   7  337.17   28.90
  -1  -4  -7  356.16   28.10
  -1  -4  -7  313.57   27.60
   1  -4   7  340.97   27.80
   1   4  -7  359.66   33.40
   1  -4   7  310.47   27.60
  -1  -4  -7  335.37   29.10
  -1  -4  -7  288.27   33.70
  -1  -5   7  371.46   29.50
   1   5   7  357.26   32.30
  -1  -5   7  368.26   32.40
   1  -5  -7  363.06   30.00
  -1   5  -7  365.86   31.30
   1  -5  -7  376.46   30.40
  -1  -5   7  324.97   29.00
   1  -5  -7  350.36   32.20
  -1   5  -7  393.46   32.90
  -1  -5   7  382.36   29.70
   1  -5   7  320.97   29.60
   1  -5   7  347.57   29.70
  -1  -5  -7  370.16   30.10
  -1  -5  -7  390.26   29.70
  -1   5   7  338.57   31.40
   1   5  -7  362.96   36.10
  -1  -5  -7  348.07   31.80
  -1  -6   7  138.39   13.10
   1  -6  -7  142.99   14.50
   1  -6  -7  154.88   14.10
   1  -6  -7  152.08   17.30
  -1  -6   7  156.18   14.00
  -1  -6   7  127.69   12.70
  -1   6  -7  150.18   29.40
   1   6   7  170.08   18.20
   1  -6   7  140.19   14.30
   1  -6   7  142.29   13.90
  -1   6   7  140.99   16.60
  -1  -6  -7  155.98   13.70
  -1  -6  -7  155.08   23.30
  -1  -6  -7  143.19   14.10
   1   6  -7  156.88   22.60
   1   7   7  462.25   40.40
  -1  -7   7  440.96   35.50
   1  -7  -7  402.26   34.80
   1  -7  -7  430.76   35.90
  -1  -7   7  380.76   34.70
  -1   7  -7  444.36   48.40
   1  -7  -7  426.86   38.40
  -1  -7  -7  393.76   39.10
  -1  -7  -7  472.35   42.10
  -1   7   7  428.86   39.00
   1  -7   7  416.36   35.40
   1   7  -7  437.06   44.40
  -1  -7  -7  419.96   34.90
   1  -7   7  425.06   35.40
  -1  -7  -7  400.86   35.60
  -1  -8   7    9.80    7.60
  -1   8  -7   15.50   20.70
   1  -8  -7   22.00   10.40
   1   8   7   -1.80   11.80
   1  -8  -7    8.50    7.60
   1   8  -7   30.50   19.60
   1  -8   7   22.40    8.50
  -1   8   7    2.30   11.30
  -1  -8  -7   30.50   14.10
  -1  -8  -7   11.40    8.50
   1  -8   7   11.30    7.00
  -1  -9   7  169.98   19.00
   1  -9  -7  192.48   24.70
   1   9   7  191.88   30.70
  -1  -9   7  193.68   28.00
  -1   9  -7  244.38   36.90
   1  -9  -7  187.08   19.70
   1   9  -7  210.78   33.40
  -1  -9  -7  183.78   19.80
   1  -9   7  195.58   20.50
  -1  -9  -7  213.98   26.20
  -1   9   7  191.08   27.40
   1 -10  -7   11.20   11.70
  -1  10  -7   21.20   24.20
  -1 -10   7   -3.70   20.20
   1 -10  -7    9.70   12.00
  -1 -10   7    8.80    9.70
  -1 -10  -7    9.00   14.60
   1  10  -7   27.90   23.20
   1 -10   7   14.00   10.90
  -1 -10  -7    2.00    9.80
  -2   0  -7    2.00    3.50
  -2   0  -7    0.30    2.60
   2   0  -7    1.90    2.00
   2   0  -7   -0.30    0.90
   2   0  -7    2.00    2.70
  -2   0   7    2.20    5.90
  -2   0  -7   -1.70    3.20
   2   0   7   -0.50    1.00
  -2   0   7   -0.30    2.40
  -2   0   7    0.00    1.70
  -2   0   7    0.00    2.60
   2   0  -7    0.50    2.90
   2  -1  -7  137.19   12.10
  -2   1  -7  135.59   12.70
   2  -1  -7  138.39   10.90
   2  -1  -7  131.69   12.30
  -2   1  -7  130.69   11.90
   2   1   7  106.89   11.60
  -2  -1   7  129.09   12.70
  -2  -1   7  138.49   14.70
  -2  -1   7  134.89   12.00
  -2  -1   7  128.69   11.40
  -2   1   7  122.99   12.10
  -2  -1  -7  134.29   12.40
   2   1  -7  127.99   12.00
  -2  -1  -7  129.29   11.90
   2   1  -7  140.39   13.30
  -2   1   7  131.59   14.30
   2   1  -7  124.89   10.50
   2   1  -7  148.29   11.70
  -2   1   7  138.09   11.70
  -2  -1  -7  133.69   10.90
   2  -1   7  133.69   11.80
   2  -2  -7   35.50    4.00
  -2   2  -7   29.70    4.60
   2  -2  -7   34.50    5.20
  -2  -2   7   30.70    6.60
  -2  -2   7   31.20    4.70
  -2  -2   7   26.30    3.90
   2   2   7   30.20    5.10
   2  -2  -7   39.40    6.50
  -2  -2   7   30.10    3.30
  -2   2  -7   32.40    4.80
  -2   2  -7   42.20    8.20
  -2  -2  -7   33.60    5.40
  -2  -2  -7   45.70    5.50
  -2   2   7   43.40    7.10
  -2  -2  -7   31.20    6.30
   2  -2   7   33.50    4.80
   2   2  -7   31.00    3.40
   2  -3  -7  112.59   10.70
   2  -3  -7  118.89   11.30
   2  -3  -7  131.09   12.90
  -2   3  -7  134.89   11.00
  -2  -3   7  124.39   13.00
  -2  -3   7  130.09   10.20
  -2  -3   7  123.59   10.20
  -2   3  -7  105.79   11.00
  -2  -3   7  118.89   11.20
  -2  -3  -7  115.39   11.80
  -2   3   7  120.69   13.30
   2   3  -7  110.19   10.10
   2   3  -7  116.79   15.00
  -2  -3  -7  131.89   20.00
   2  -3   7  118.49   10.90
  -2  -3  -7  114.69   11.40
   2  -3   7  111.99   11.10
  -2  -4   7  115.69   12.90
   2   4   7  101.09   13.10
  -2   4  -7  109.29   10.20
  -2   4  -7   94.89   17.30
   2  -4  -7  100.39   10.60
   2  -4  -7  120.89   12.70
  -2  -4   7  109.59    9.80
  -2  -4   7   95.89   10.20
   2  -4  -7  108.89   10.40
   2  -4   7  105.69   10.30
  -2  -4  -7  104.79   11.30
  -2   4   7   97.99   13.20
   2   4  -7  141.59   16.40
  -2  -4  -7  120.89   21.50
  -2  -4  -7  125.69   11.10
   2  -4   7   88.99   10.40
  -2  -5   7   28.70    4.70
  -2  -5   7   31.70    5.30
   2  -5  -7   31.20    8.00
   2  -5  -7   24.40    5.10
   2  -5  -7   26.70    5.70
  -2   5  -7   -5.70   10.90
  -2  -5   7   27.90    8.10
   2   5   7   43.00    9.70
  -2  -5   7   25.90    4.80
   2   5  -7   33.50   11.90
  -2  -5  -7   40.90    6.80
   2  -5   7   32.00    6.30
  -2  -5  -7   28.60    6.20
   2  -5   7   24.80    5.60
  -2   5   7   25.70    8.30
  -2  -5  -7   28.10    6.90
  -2  -5  -7   24.40   16.40
  -2  -6   7   49.00    6.60
  -2  -6   7   40.90   11.00
   2   6   7   39.70   11.30
  -2   6  -7    4.20   22.50
   2  -6  -7   45.70    6.60
  -2  -6   7   42.90    6.60
   2  -6  -7   42.70    7.70
   2  -6  -7   50.79   10.60
  -2   6  -7   72.79   13.90
  -2  -6   7   45.50    7.20
   2  -6   7   52.69    8.00
  -2  -6  -7   35.70   17.20
  -2   6   7   61.29   11.80
  -2  -6  -7   63.79    8.90
   2   6  -7   65.69   16.10
   2  -6   7   48.40    7.70
  -2  -6  -7   57.79    8.40
  -2  -6  -7   54.89    9.60
  -2  -7   7    8.60    4.70
   2  -7  -7   17.00    7.40
   2  -7  -7   20.10    9.20
   2  -7  -7   11.20    4.40
   2   7   7   11.70   11.30
  -2  -7   7    0.30   10.00
  -2   7  -7    3.50   20.30
  -2  -7   7   12.80    6.30
  -2  -7  -7   -2.20   14.30
  -2  -7  -7   14.90    6.70
   2  -7   7   15.90    6.20
   2  -7   7    9.40    6.50
  -2  -7  -7   20.80    6.90
   2   7  -7   25.70   14.70
  -2   7   7    3.40    9.90
  -2  -7  -7   12.20    8.60
   2  -8  -7  117.99   14.00
  -2  -8   7   80.39   17.20
   2  -8  -7  125.99   16.40
  -2   8  -7  110.99   30.50
   2   8   7   76.59   18.30
  -2  -8   7   72.99   11.50
   2  -8   7   91.89   12.60
   2   8  -7  125.59   24.50
  -2  -8  -7   97.49   13.80
   2  -8   7   82.19   12.40
  -2   8   7  119.89   19.20
  -2  -8  -7   97.29   22.60
   2  -9  -7   14.20   10.90
  -2  -9   7   -0.10   14.30
  -2   9  -7   11.40   27.80
   2   9   7    5.80   15.50
   2  -9  -7    7.80    9.90
  -2  -9   7   -9.10    7.30
   2   9  -7   19.00   21.10
   2  -9   7    6.80    9.60
  -2  -9  -7    7.20    8.90
  -2  -9  -7   11.70   15.80
   2  10   7   10.90   18.00
   2 -10  -7   18.60   14.80
  -2 -10   7   20.50   10.60
  -2 -10   7   14.50   17.60
   2 -10  -7   18.20   11.40
  -2  10  -7   25.60   27.80
   2 -10   7   15.30   12.00
  -2 -10  -7   22.70   17.00
  -2 -10  -7   22.00   12.30
   2  10  -7   49.60   26.60
   3   0  -7   -0.70    0.90
   3   0  -7    2.20    3.70
  -3   0   7    1.00    3.70
  -3   0   7   -3.20    6.50
  -3   0  -7    0.90    3.30
  -3   0  -7    0.90    3.90
  -3   1  -7 1546.05  123.09
   3  -1  -7 1572.04  123.39
  -3  -1   7 1613.34  122.89
  -3   1  -7 1545.95  123.39
   3  -1  -7 1543.95  121.99
   3  -1  -7 1573.74  123.29
  -3   1   7 1704.03  123.69
  -3   1   7 1517.85  125.49
  -3  -1  -7 1475.35  123.19
  -3  -1  -7 1476.55  122.49
  -3  -1  -7 1561.14  123.39
  -3   1   7 1496.35  121.99
   3  -1   7 1622.94  122.89
   3   1  -7 1505.15  124.39
   3  -1   7 1505.65  122.39
   3   1  -7 1466.05  122.89
  -3  -2   7   12.90    3.60
  -3   2  -7   20.00    5.70
  -3  -2   7   17.20    7.00
  -3  -2   7   16.60    1.90
  -3   2  -7   12.00    4.10
   3  -2  -7   11.70    4.00
   3  -2  -7   18.20    5.30
   3  -2  -7   14.70    3.00
  -3   2   7   16.70    2.90
   3   2  -7   23.10    7.50
  -3  -2  -7   12.20    5.20
  -3  -2  -7   14.20    5.00
   3  -2   7   10.70    3.90
  -3   2   7   14.40    6.60
   3  -3  -7  183.28   15.80
  -3   3  -7  176.08   15.40
  -3  -3   7  169.28   14.20
   3  -3  -7  171.78   16.80
  -3   3  -7  178.38   17.90
   3  -3  -7  173.68   14.80
  -3  -3   7  177.98   15.00
  -3  -3   7  173.18   17.80
  -3   3   7  161.68   14.60
  -3  -3  -7  167.58   16.40
  -3  -3  -7  173.78   16.10
   3   3  -7  178.18   19.30
   3  -3   7  171.58   15.80
  -3   3   7  168.68   17.20
   3  -3   7  171.68   15.40
  -3   4  -7   76.09   16.90
  -3  -4   7  107.69    9.90
  -3  -4   7  106.99   10.20
  -3   4  -7  110.19   10.60
  -3  -4   7  100.49   13.60
   3  -4  -7  104.29   10.60
   3   4   7  100.79   13.70
   3  -4  -7  113.19   13.00
   3  -4  -7  108.89   11.10
   3   4  -7  119.79   16.40
   3  -4   7  106.59   11.80
  -3  -4  -7  133.69   12.20
  -3  -4  -7  113.59   12.20
   3  -4   7  125.39   11.40
  -3   5  -7 1351.16  105.09
   3   5   7 1467.95  108.79
   3  -5  -7 1331.57  107.39
   3  -5  -7 1350.06  105.79
  -3  -5   7 1336.87  104.89
  -3  -5   7 1240.58  107.59
   3  -5  -7 1301.87  105.29
   3  -5   7 1343.27  105.59
  -3  -5  -7 1312.37  105.99
  -3  -5  -7 1367.66  105.69
  -3  -5  -7 1143.29  114.49
  -3  -5  -7 1291.77  106.39
   3   5  -7 1311.57  110.59
   3  -5   7 1268.17  105.99
   3  -6  -7   46.50    8.20
  -3  -6   7   45.70    7.90
  -3  -6   7   34.10   11.70
  -3   6  -7  -11.50   13.80
  -3  -6   7   41.20    6.80
   3  -6  -7   42.30   10.30
   3   6   7   30.30   12.10
  -3   6   7   44.90   12.70
   3  -6   7   41.40    8.50
   3  -6   7   52.19    8.50
   3   6  -7   50.39   15.70
  -3  -6  -7   45.90    8.80
  -3  -6  -7   37.50    8.80
  -3  -6  -7   37.90   21.20
  -3  -6  -7   31.90    8.30
  -3  -7   7  152.28   21.10
  -3   7  -7  172.68   23.20
   3  -7  -7  160.78   16.30
   3  -7  -7  165.88   19.00
  -3  -7   7  162.18   15.50
   3   7   7  143.39   22.60
  -3  -7  -7  166.98   34.20
  -3  -7  -7  155.38   17.80
  -3   7   7  140.19   20.90
   3   7  -7  174.98   26.40
   3  -7   7  153.38   15.90
  -3  -7  -7  140.19   15.60
  -3  -7  -7  158.38   16.80
   3  -7   7  149.59   16.50
  -3  -8   7   11.40    7.70
   3   8   7   19.50   14.80
  -3   8  -7  -16.80   24.60
  -3  -8   7    7.20   14.20
   3  -8  -7   21.00   11.10
   3  -8  -7    3.40    8.60
   3  -8   7    6.60    7.30
  -3  -8  -7  -33.40   17.10
  -3  -8  -7    7.30    8.40
   3  -8   7   14.20    9.10
  -3  -8  -7   11.40    9.30
  -3   8   7    6.20   13.20
   3   8  -7   23.10   18.30
  -3  -9   7  181.28   28.30
   3  -9  -7  147.49   18.00
   3  -9  -7  135.09   20.30
  -3  -9   7  137.89   16.60
   3   9   7  151.08   26.50
  -3   9  -7  158.58   44.40
   3  -9   7  148.69   18.10
   3   9  -7  159.98   33.60
  -3  -9  -7  151.88   19.50
  -3  -9  -7  134.59   29.90
  -3 -10   7   -4.90    9.20
  -3 -10   7  -11.50   17.40
   3 -10  -7   11.70   11.70
   3  10   7    2.60   18.10
   3 -10  -7   -5.50   13.20
  -3  10  -7    5.10   34.70
  -3 -10  -7   10.10   19.00
  -3 -10  -7   -0.90   12.20
   3  10  -7   14.70   22.80
   3 -10   7   12.50   12.20
  -4   0   7    3.90    1.20
  -4   0   7   -8.00    7.80
   4   0   7    2.00    1.70
  -4   0  -7   15.90    5.70
   4   0  -7   -8.10    2.30
  -4   1  -7  263.77   23.90
   4  -1  -7  252.87   21.80
   4  -1  -7  294.17   24.20
  -4  -1  -7  260.27   23.80
   4   1  -7  274.47   25.60
  -4   1   7  259.37   21.80
   4  -1   7  275.07   23.40
  -4  -1  -7  259.97   23.70
  -4   1   7  289.17   27.20
   4   1  -7  290.37   23.60
  -4  -2   7   22.80    9.90
   4  -2  -7   29.00    4.20
  -4   2  -7   41.20    8.00
   4  -2  -7   29.80    7.00
   4  -2   7   25.80    5.40
  -4  -2  -7   48.20    8.10
  -4   2   7   28.00    5.70
  -4   2   7   36.30    8.50
  -4  -2  -7   31.80    6.40
   4   2  -7   32.50    8.90
  -4  -2  -7   31.10    6.80
   4  -2   7   28.70    5.80
  -4   3  -7  111.49   11.50
   4  -3  -7  116.59   10.50
  -4  -3   7  117.49    9.60
  -4   3  -7  106.99   13.60
  -4  -3   7  113.69   15.20
   4  -3  -7  115.99   13.20
  -4   3   7  112.19   10.90
   4  -3   7  108.09   11.30
  -4   3   7  112.29   13.70
  -4  -3  -7  101.79   12.20
   4   3  -7  114.19   15.80
  -4  -3  -7  107.69   12.70
  -4  -3  -7  113.79   12.10
  -4   4  -7   23.30    5.50
  -4  -4   7   22.50    9.90
   4  -4  -7   33.00    8.30
   4  -4  -7   35.10    5.80
  -4  -4   7   24.10    4.40
  -4   4  -7   24.60   11.00
   4   4  -7   47.00   12.30
  -4  -4  -7   48.70    8.80
   4  -4   7   39.30    7.00
  -4  -4  -7   38.80    7.60
  -4  -4  -7   41.70    8.00
  -4   4   7   24.60    5.70
   4  -4   7   26.80    7.20
   4  -5  -7   89.09   13.10
  -4  -5   7   86.19   14.50
  -4  -5   7   93.89    9.10
  -4   5  -7   38.90   16.20
   4  -5  -7   80.49    9.70
  -4   5  -7   89.29   10.00
   4  -5   7   95.59   12.30
  -4  -5  -7  133.79   27.30
  -4  -5  -7   90.99   12.80
   4   5  -7   94.19   18.50
   4  -5   7  114.39   12.10
  -4  -5  -7   95.59   12.80
  -4  -6   7   22.10   11.20
   4  -6  -7   41.90   10.40
  -4  -6   7   44.10   13.50
   4   6   7   53.69   14.80
  -4  -6   7   38.30    6.80
  -4   6  -7   19.00   17.30
   4  -6  -7   43.90    8.50
  -4  -6  -7   65.99   27.60
   4   6  -7   55.39   16.70
  -4  -6  -7   57.89   10.50
   4  -6   7   37.60    9.00
  -4  -6  -7   56.09   10.30
  -4  -6  -7   55.59    9.20
   4  -6   7   51.69    8.80
   4  -7  -7   17.30   10.20
  -4   7  -7  -21.10   16.00
  -4  -7   7   13.10   12.00
   4   7   7   10.60   14.10
  -4  -7   7   25.30    6.70
   4  -7  -7    9.90    8.10
  -4  -7  -7   25.50    9.60
   4  -7   7   15.50    8.60
  -4  -7  -7   22.80    9.30
   4   7  -7   49.60   18.40
   4  -7   7   11.00    8.50
  -4  -7  -7   21.90   26.70
  -4  -7  -7   19.20    8.90
  -4   7   7   14.80   14.20
   4  -8  -7   21.70    8.50
  -4  -8   7   17.00    7.60
  -4   8  -7   36.90   16.30
   4  -8  -7   24.60   11.60
  -4  -8   7   11.90   16.10
  -4   8  -7   -1.10   35.60
   4   8   7   29.60   17.00
  -4  -8  -7   -4.30   26.60
  -4  -8  -7   40.20   10.90
   4  -8   7   32.90   10.30
  -4  -8  -7   39.80   10.80
   4  -8   7   15.70    9.30
   4   8  -7   36.20   22.20
  -4  -8  -7   33.20   11.20
  -4  -9   7    7.70   18.30
   4   9   7   15.90   18.10
   4  -9  -7   15.60   10.60
   4  -9  -7   13.10   11.80
  -4  -9   7    4.50    8.60
  -4   9  -7    4.60   31.90
   4   9  -7   22.30   24.30
  -4  -9  -7  -22.70   24.10
   4  -9   7    7.30   10.70
  -4  -9  -7    4.50   10.50
   4 -10  -7   26.20   16.20
  -4 -10   7   31.90   23.00
   4 -10  -7   22.60   12.40
  -4 -10  -7   17.00   35.00
  -4 -10  -7    9.30   16.80
  -4 -10  -7   21.60   13.70
   4 -10   7   29.20   11.70
  -5   0   7  -15.20    8.90
   5   0  -7    4.70    5.40
   5   0   7    1.20    2.60
  -5   0  -7    4.50    2.60
  -5   0  -7    3.40    6.30
  -5   0   7    0.60    1.70
  -5  -1   7  285.57   36.10
  -5   1  -7  342.27   30.00
   5  -1  -7  350.26   27.70
   5  -1  -7  343.87   30.10
  -5  -1  -7  324.67   28.40
  -5   1   7  345.07   27.50
   5   1  -7  308.47   29.40
  -5   1   7  325.47   29.40
  -5   1   7  369.26   34.10
  -5  -1  -7  394.96   30.50
   5  -1   7  350.06   29.70
   5  -2  -7    9.40    6.60
  -5   2  -7   13.80    7.80
  -5  -2   7   -7.40    9.80
   5  -2  -7    8.40    3.40
   5  -2   7    9.10    5.00
  -5   2   7   15.70    8.10
  -5  -2  -7    2.00    6.90
   5  -2   7   -0.20    6.80
   5   2  -7   16.30    9.00
  -5   2   7   11.00    5.50
  -5  -2  -7    9.90    7.70
   5  -3  -7 1322.37  109.29
   5  -3  -7 1366.36  107.09
  -5  -3   7 1405.36  106.39
  -5   3  -7 1352.66  109.19
  -5  -3   7 1321.87  112.19
  -5   3   7 1301.57  109.79
   5   3  -7 1241.28  111.39
  -5  -3  -7 1336.47  109.39
  -5   3   7 1405.66  107.89
   5  -3   7 1360.66  107.79
  -5  -3  -7 1407.46  108.89
  -5  -3  -7 1309.47  108.89
  -5   4  -7   21.30    9.80
  -5  -4   7   20.30    3.90
  -5   4  -7   17.50    6.00
  -5  -4   7   14.40   10.20
   5  -4  -7   12.70    8.00
   5  -4  -7   12.80    5.20
  -5  -4  -7   19.40    8.10
  -5   4   7   15.10    6.00
  -5  -4  -7   20.60    8.10
  -5   4   7   23.40    8.70
   5  -4   7   13.90    6.50
   5   4  -7   23.20   11.60
  -5  -4  -7   25.60    8.00
  -5  -5   7   70.79   15.80
  -5  -5   7   76.39    7.80
   5  -5  -7   53.99   12.20
  -5   5  -7   43.50   15.90
  -5   5  -7   56.89    9.00
   5  -5  -7   68.79    9.30
  -5  -5  -7   65.49   11.20
   5   5  -7   63.79   16.70
  -5  -5  -7   62.39   12.20
  -5  -5  -7   74.29   12.80
  -5   5   7   57.39   11.30
   5  -5   7   68.99   10.40
   5  -5   7   65.69   11.80
   5  -6  -7    1.00   10.30
  -5  -6   7    3.40    5.00
   5  -6  -7   -4.50    6.30
  -5  -6   7   -3.40   10.80
  -5   6  -7    5.50   14.90
   5  -6   7   -4.10    7.70
  -5  -6  -7   -4.30    9.60
  -5  -6  -7    2.40    7.80
   5   6  -7   15.80   16.20
  -5  -6  -7   -1.50    8.80
   5  -6   7   -0.70    7.80
  -5  -6  -7   -2.10    7.30
  -5  -6  -7    0.70   21.60
   5  -7  -7  402.36   39.80
  -5  -7   7  399.46   34.60
  -5  -7   7  460.85   43.70
   5  -7  -7  383.56   35.70
   5  -7   7  443.26   36.60
   5   7  -7  430.56   45.70
   5  -7   7  359.46   36.80
  -5   7   7  383.86   45.50
  -5  -7  -7  432.76   40.90
  -5  -7  -7  441.56   37.60
  -5  -7  -7  441.06   36.50
  -5  -7  -7  365.76   54.09
  -5  -7  -7  444.36   38.30
   5  -8  -7    2.80    9.10
  -5  -8   7    7.90   15.00
   5  -8  -7    1.90   11.70
  -5  -8   7   -8.70   11.40
   5  -8   7    0.40    9.90
  -5  -8  -7    8.90   28.80
  -5  -8  -7   -4.00   10.20
   5  -8   7    1.90    9.90
  -5  -8  -7    0.00   13.60
   5   8  -7   27.00   22.70
  -5  -8  -7    5.50    9.70
  -5  -8  -7    1.40   10.60
  -5   9  -7   38.30   42.30
   5  -9  -7  114.59   21.50
  -5  -9   7  121.89   27.20
   5  -9  -7  125.29   16.90
  -5  -9  -7  125.79   17.70
   5  -9   7  134.39   18.10
  -5  -9  -7   25.00   30.10
   5   9  -7  104.49   29.80
  -5  -9  -7  106.69   23.40
  -6   0  -7   57.49    9.80
  -6   0   7   -2.20   11.80
  -6  -1   7   94.19   23.20
   6  -1  -7  149.99   14.70
   6  -1  -7  166.78   17.20
  -6   1  -7  161.48   18.00
  -6   1   7  164.68   22.30
   6  -1   7  157.88   16.20
  -6  -1  -7  149.39   17.00
  -6   1   7  153.28   13.30
   6  -1   7  175.58   19.30
  -6  -1  -7  155.08   14.60
  -6   1   7  168.78   16.40
  -6   2  -7   15.40    8.30
   6  -2  -7   11.10    4.50
   6  -2  -7   19.80    8.50
  -6  -2   7   -4.80   11.70
  -6   2   7   29.20   11.00
  -6  -2  -7   14.30    7.10
  -6  -2  -7   35.10    9.90
   6  -2   7   12.20    6.90
  -6   2   7   18.60    7.40
  -6  -3   7  126.89   10.80
  -6   3  -7  131.59   16.40
   6  -3  -7  123.99   16.10
  -6  -3   7   95.19   21.30
   6  -3  -7  118.89   12.30
  -6   3   7  116.19   14.10
  -6  -3  -7  129.09   16.30
   6  -3   7  134.19   13.40
   6   3  -7  158.78   20.50
  -6  -3  -7  138.19   16.80
  -6   3   7  141.99   18.70
  -6   4  -7   15.70   10.50
   6  -4  -7   23.60    9.70
  -6  -4   7   11.10   14.30
   6  -4  -7   15.80    5.60
  -6  -4   7   12.30    3.70
  -6  -4  -7   10.80   10.00
   6  -4   7   29.50    7.90
  -6   4   7    9.10    7.00
  -6  -4  -7   38.80   10.00
  -6   4   7   21.20    9.70
  -6  -4  -7   20.50    9.00
   6   4  -7   30.30   13.50
   6  -5  -7   40.00   11.50
   6  -5  -7   29.60    7.20
  -6   5  -7   18.70    7.40
  -6  -5   7   35.20   14.60
  -6   5  -7   25.90   14.20
  -6   5   7   27.60   10.20
  -6  -5  -7   19.70   11.20
   6  -5   7   25.10    7.80
  -6  -5  -7   37.10   11.60
  -6  -5  -7   22.40   10.00
   6   5  -7   37.40   16.00
  -6   6  -7   30.20   17.90
   6  -6  -7   48.90   12.50
   6  -6  -7   28.50    8.00
  -6  -6   7   14.00   14.30
   6  -6   7   25.40   10.20
  -6  -6  -7   66.99   13.30
   6   6  -7   40.30   18.10
  -6  -6  -7   26.30   12.60
  -6  -6  -7   44.20    9.70
   6  -6   7   26.70    8.90
  -6  -6  -7   36.00   10.80
  -6  -7   7    8.90   16.80
   6  -7  -7   19.30   14.00
   6  -7  -7   17.00    8.80
  -6   7  -7   56.09   22.50
  -6  -7  -7   27.60   12.30
   6  -7   7   26.40    9.50
   6   7  -7   29.80   19.80
  -6  -7  -7   28.40   11.10
  -6  -7  -7   57.39   27.70
  -6  -7  -7   19.70   14.50
  -6  -7  -7   26.90   10.20
   6  -7   7   19.20   11.60
   6  -8  -7    9.10   13.00
   6  -8  -7    6.60    9.70
  -6  -8   7   16.90   19.20
  -6  -8  -7   11.10   15.20
  -6  -8  -7   12.90   12.40
   6   8  -7   25.00   24.40
   6  -8   7   16.50   10.00
  -6  -8  -7   44.00   29.40
   6  -8   7   15.50   11.40
  -6  -8  -7   10.80   12.10
  -6  -8  -7    6.60   10.20
   6  -9  -7    2.80   16.90
   6  -9  -7    2.60    9.20
  -6  -9  -7  -14.30   30.30
   6  -9   7   13.10   12.60
  -6  -9  -7    9.70   12.60
  -7   0   7   -6.50   15.10
  -7   0  -7   13.20    9.60
  -7   0  -7    6.80    4.60
  -7   0   7    1.60    9.60
   7   0  -7   11.50    8.50
  -7   1  -7  436.06   40.30
  -7  -1   7  482.05   41.00
   7  -1  -7  421.66   40.40
  -7   1   7  467.15   43.40
  -7  -1  -7  454.25   37.70
  -7  -1  -7  439.56   40.30
  -7   1   7  446.36   39.70
   7  -2  -7   52.09   12.00
  -7  -2   7   35.20   21.30
  -7   2  -7   50.49   12.10
   7  -2  -7   55.69    8.50
  -7  -2  -7   43.20   10.00
   7  -2   7   52.69   11.10
  -7   2   7   51.39   11.40
  -7  -2  -7   35.40   11.30
  -7   2   7   53.39   13.30
   7  -3  -7  131.59   17.90
   7  -3  -7  124.19   13.60
  -7   3  -7  150.88   19.40
  -7   3   7  152.98   21.10
  -7  -3  -7  139.89   18.00
  -7  -3  -7  126.99   17.50
  -7   3   7  144.29   16.20
   7  -3   7  129.89   15.60
  -7  -4   7   30.30   17.70
  -7   4  -7   61.39   14.40
   7  -4  -7   69.59    9.60
   7  -4  -7   63.19   14.10
  -7  -4  -7   38.80   14.50
   7  -4   7   60.09   10.90
  -7  -4  -7   64.39   13.80
  -7  -4  -7   61.89   13.50
  -7   4   7   66.39   11.90
  -7   4   7   67.39   14.20
  -7  -5   7  390.66   45.20
  -7   5  -7  409.06   41.30
   7  -5  -7  420.16   36.20
  -7   5  -7  410.06   37.60
   7  -5  -7  425.46   41.10
  -7  -5  -7  467.95   40.80
  -7  -5  -7  451.45   39.80
   7   5  -7  429.46   45.70
   7  -5   7  429.06   36.90
  -7  -6   7   26.30   17.70
  -7   6  -7   29.00   17.80
   7  -6  -7   19.60    8.70
   7  -6  -7   18.40   12.80
  -7  -6  -7   30.40    9.20
  -7  -6  -7   16.30   12.80
  -7  -6  -7   20.80   12.90
   7  -6   7   29.80   10.00
  -7  -6  -7   16.50   13.90
   7   6  -7   44.20   20.70
   7  -7  -7   66.99   17.10
   7  -7  -7   72.29   12.40
  -7   7  -7  121.19   32.80
  -7  -7   7   90.49   25.40
   7   7  -7   79.69   25.50
  -7  -7  -7   65.69   12.80
   7  -7   7   70.29   14.00
  -7  -7  -7   75.09   27.80
  -7  -7  -7   59.39   16.40
  -7  -7  -7   64.99   15.60
   7  -8  -7    1.70   10.40
   7  -8  -7    9.40   14.10
  -7  -8   7    5.10   21.90
  -7  -8  -7   85.49   25.80
   7   8  -7   18.20   22.50
  -7  -8  -7   -1.60   11.20
  -7  -8  -7   -0.90   13.90
   7  -8   7   16.10   11.70
  -7  -8  -7   -2.00   11.40
  -8   0  -7   -1.60   10.50
  -8   0   7   10.70   17.10
  -8   0   7    4.50   11.80
   8  -1  -7   82.59   14.90
  -8   1  -7   74.79   16.40
  -8  -1   7   69.69   16.50
  -8  -1   7    5.00   21.20
  -8  -1  -7   59.39   14.40
  -8   1   7   91.79   16.10
  -8   1   7   92.79   20.00
  -8  -2   7   -0.60   22.00
   8  -2  -7   46.80   12.70
  -8   2  -7   47.20   12.80
  -8  -2   7   43.00   13.80
  -8  -2  -7   97.59   15.50
  -8   2   7   43.00   11.80
   8  -2   7   43.80   12.90
  -8   2   7   53.69   15.70
  -8   3  -7   28.70   12.10
   8  -3  -7   25.50    8.50
   8  -3  -7   32.80   12.70
  -8  -3   7   23.30   14.00
  -8  -3   7   26.90   21.90
  -8   3   7   42.70   15.20
  -8   3   7   30.30   11.80
   8  -3   7   30.50   11.10
  -8  -3  -7   33.00   12.80
   8  -4  -7   21.20    7.80
  -8   4  -7   30.70   14.00
   8  -4  -7   21.50   12.30
  -8  -4   7   -1.40   15.10
  -8   4   7   27.30   14.00
  -8   4   7    2.70   10.10
  -8  -4  -7   28.70   13.00
   8  -4   7   22.00    9.70
  -8  -4  -7   39.10   13.20
   8  -5  -7   11.80    8.40
  -8  -5   7    0.80   18.60
  -8   5  -7    5.20   10.20
  -8   5  -7   19.40   14.90
   8  -5  -7   14.80   13.20
  -8  -5  -7   18.10   13.00
   8  -5   7   25.00    9.90
  -8  -5  -7   27.10   13.30
  -8   6  -7   14.10   18.90
   8  -6  -7   23.50   15.50
   8  -6  -7    6.10    8.70
  -8  -6   7    0.90   20.50
  -8  -6  -7   23.20   15.60
   8  -6   7    5.80   10.50
  -8  -6  -7   10.10    9.60
  -8  -6  -7    5.90   12.70
   8  -7  -7   12.30    9.80
  -8  -7   7   25.30   24.30
   8  -7  -7    4.90   14.20
   8  -7   7   14.10   11.60
  -8  -7  -7    0.10   13.30
  -8  -7  -7    0.50   13.40
  -8  -7  -7    3.80   15.20
  -9   0   7  -14.60   13.00
  -9   0  -7    4.50   14.40
  -9   0   7    9.20   18.30
  -9  -1   7  184.48   35.10
  -9  -1   7  219.28   28.80
  -9   1  -7  214.88   26.40
  -9   1   7  215.68   30.90
  -9   1   7  210.08   25.70
  -9  -1  -7  190.48   26.50
  -9  -2   7   30.50   16.40
  -9   2  -7   24.40   15.40
   9  -2  -7   47.00   15.70
  -9  -2  -7   32.30   16.20
  -9   2   7   26.80   15.50
  -9   2   7    8.60   13.20
  -9  -3   7  195.38   28.50
  -9   3  -7  157.78   22.20
  -9  -3   7   78.09   32.90
   9  -3  -7  149.29   21.70
   9  -3   7  171.38   22.00
  -9  -3  -7  158.68   24.20
  -9  -3  -7  137.49   22.40
  -9   3   7  141.09   22.00
  -9   3   7  150.58   24.30
   9  -4  -7   20.70   14.30
  -9   4  -7   45.40   17.40
  -9  -4   7   50.09   23.80
  -9  -4   7   52.59   18.40
  -9   4   7   48.30   15.50
   9  -4   7   37.20   12.30
  -9  -4  -7   25.70   15.10
  -9  -4  -7   30.30   17.00
   9  -5  -7  110.19   21.10
  -9   5  -7  130.59   23.80
  -9  -5   7   90.09   26.40
  -9  -5   7  113.29   24.10
  -9  -5  -7  125.79   23.90
   9  -5   7  105.49   17.00
  -9  -5  -7  119.69   21.40
  -9   6  -7   52.69   30.00
  -9  -6   7   32.60   23.70
  -9  -6   7   33.30   23.50
   9  -6  -7   14.10   16.90
  -9  -6  -7   19.40   18.40
   9  -6   7   40.80   13.30
 -10   0   7   57.59   19.20
 -10   0   7   65.69   21.80
 -10   0  -7   59.29   17.20
 -10   1  -7    4.10   14.40
 -10  -1   7    6.70   15.20
 -10  -1   7    9.40   22.40
 -10   1   7   17.20   14.50
 -10  -1  -7   17.10   17.40
 -10   1   7   25.90   17.40
 -10  -2   7   -1.40   15.40
 -10  -2   7   -3.10   25.10
 -10   2  -7   12.30   16.80
 -10  -2  -7   12.00   15.00
 -10   2   7   17.00   16.30
 -10   2   7    5.30   15.00
 -10   3  -7   13.10   17.10
 -10  -3   7   13.00   16.90
 -10   3   7   21.60   15.80
 -10  -3  -7    0.90   17.90
 -10   3   7   31.40   17.90
 -10  -3  -7   -2.80   15.00
 -10  -4   7   25.50   23.20
  10  -4  -7   22.30   15.70
 -10   4  -7   17.00   18.20
 -10  -4   7  -11.70   26.40
 -10  -4  -7   40.70   16.70
  10  -4   7   43.60   14.80
   0   0   8 6839.52  587.54
   0   0  -8 7304.67  587.64
   0   0  -8 6569.34  587.74
   0   0   8 7418.06  587.34
   0   0   8 7739.73  587.84
   0   0  -8 8493.05  588.14
   0   0  -8 7683.83  587.74
   0   1  -8    0.60    3.30
   0   1   8   -3.40    2.40
   0   1  -8   -7.60    3.50
   0   1  -8   -4.50    4.90
   0  -1  -8   -1.70    4.90
   0   1  -8    1.60    3.00
   0   1  -8    0.40    1.90
   0  -1  -8    0.60    2.60
   0  -1  -8   -1.60    4.70
   0  -1   8    5.90    2.60
   0  -1   8    0.70    2.90
   0   1  -8  -12.40    5.10
   0   1   8   -2.50    2.90
   0  -1  -8   -3.30    3.30
   0  -1   8    6.60    3.70
   0   1   8    2.30    2.70
   0   1   8    2.30    5.00
   0  -1   8    0.20    1.90
   0   2   8 1094.19   82.39
   0  -2   8  863.21   82.59
   0   2   8  987.20   81.29
   0   2  -8 1102.39   82.69
   0  -2  -8 1068.79   82.29
   0  -2  -8 1068.99   81.59
   0   2  -8  961.20   83.69
   0  -2  -8 1108.39   81.79
   0  -2  -8  832.62   84.29
   0   2  -8  956.00   80.99
   0  -2   8 1041.70   82.29
   0   2  -8 1058.99   81.39
   0  -2   8 1154.58   81.49
   0   3  -8  -16.90    8.70
   0  -3  -8  -11.70    5.30
   0  -3   8    1.20    3.40
   0   3   8   -1.30    2.60
   0  -3   8    1.50    3.70
   0  -3  -8   -4.20    3.80
   0  -3   8   -0.60    2.50
   0   3  -8    3.40    2.40
   0   3  -8    5.90    6.40
   0  -3  -8   -2.10    2.00
   0  -3  -8   -5.50    5.70
   0  -4  -8 1581.44  148.79
   0   4  -8 1818.32  145.59
   0  -4  -8 1801.42  149.79
   0   4   8 1993.30  146.89
   0  -4   8 1879.01  145.39
   0  -4   8 2005.50  145.99
   0   4  -8 1636.44  146.19
   0  -4  -8 1922.31  149.09
   0  -4  -8 1789.22  145.39
   0   4  -8 1976.50  147.99
   0   4  -8 1660.43  152.48
   0  -4  -8 2019.60  146.19
   0   5   8    1.20    5.40
   0  -5   8    0.00    1.90
   0  -5  -8   -6.40    7.00
   0   5  -8    5.80   12.40
   0  -5   8   -0.80    2.40
   0  -5  -8    1.80    4.00
   0  -5   8    3.80    4.20
   0  -5  -8    0.80    2.20
   0  -5  -8    0.60    8.10
   0  -6  -8 1239.88   95.89
   0  -6   8 1282.87   95.69
   0  -6  -8 1127.99   94.59
   0  -6  -8 1282.07   99.89
   0  -6  -8 1064.39   95.49
   0   6   8 1232.48   97.69
   0   6  -8 1297.87  106.69
   0  -6   8 1116.99   94.99
   0  -7   8   -4.00    4.10
   0  -7  -8   14.30   10.50
   0   7  -8   11.70   16.90
   0  -7   8   -4.80    5.30
   0   7   8    1.50    9.20
   0  -7  -8   -5.80    5.70
   0  -7  -8   -5.30    6.60
   0   8   8  103.29   17.70
   0   8  -8  108.59   26.80
   0  -8   8  120.99   13.70
   0  -8  -8   76.09   12.70
   0  -8  -8  110.39   18.40
   0   9   8   -8.60   13.40
   0   9  -8   25.60   24.10
   0  -9  -8    3.20   11.50
   0  -9  -8   -0.60    8.20
   0  -9   8    4.60    8.80
   0 -10  -8  264.47   31.80
   0 -10  -8  269.97   26.50
   0 -10   8  263.97   26.70
   0  10  -8  296.67   43.70
   1   0  -8  109.99   11.90
   1   0   8  112.49   10.00
  -1   0  -8   59.79    9.50
   1   0  -8   96.19    9.40
   1   0   8  106.59    9.80
  -1   0   8   95.79    9.10
   1   0  -8  110.29    9.40
  -1   0   8   86.89    9.10
   1   0   8   76.99    9.90
  -1   0  -8   92.39    9.80
  -1   0   8   88.59    9.10
  -1   0   8   93.59    9.20
  -1   0   8   85.59   12.00
   1   0  -8  108.99    9.60
  -1   0  -8  102.19    9.70
  -1  -1   8   14.20    2.70
  -1   1  -8    1.10    5.20
  -1  -1   8   10.70    2.20
  -1   1  -8   15.80    3.20
   1  -1  -8   13.70    4.20
   1   1   8   11.60    2.50
  -1   1  -8   10.60    3.80
  -1  -1   8    8.00    3.00
   1  -1  -8   11.70    4.10
  -1  -1   8    8.70    4.10
  -1  -1   8   10.80    3.00
   1   1   8    9.70    3.10
  -1  -1   8    6.20    4.40
   1  -1  -8   10.90    3.60
  -1  -1  -8   14.10    3.90
   1   1  -8   12.60    5.00
  -1   1   8   12.30    3.80
   1   1  -8   12.20    2.40
  -1   1   8    8.70    3.10
   1   1  -8   12.40    3.10
  -1  -1  -8    8.60    2.50
   1  -1   8    9.40    2.80
  -1   1   8    8.10    2.00
   1   1  -8    8.20    2.00
  -1   1   8   15.70    3.20
   1   1  -8   11.40    5.10
   1  -1   8    9.80    2.70
   1  -1   8    9.60    3.50
  -1  -1  -8   10.80    3.20
  -1   1   8   15.40    5.30
  -1  -2   8    5.50    2.00
   1  -2  -8    7.20    2.40
   1   2   8    5.40    2.60
   1  -2  -8    6.70    4.20
  -1  -2   8    7.20    4.00
  -1   2  -8    3.20    2.10
  -1  -2   8    5.90    2.50
  -1   2  -8    0.80    3.10
  -1   2  -8   -3.00    6.00
   1  -2  -8    5.60    4.50
  -1   2   8    0.10    3.00
  -1  -2  -8   -1.20    6.80
   1   2  -8    4.20    2.60
  -1  -2  -8    5.70    3.30
  -1   2   8    8.40    3.90
   1  -2   8    4.60    2.90
   1   2  -8    6.80    1.90
   1  -2   8    5.50    2.50
   1   2  -8   11.30    6.70
  -1  -2  -8    6.10    2.70
  -1  -2  -8    5.80    2.80
  -1  -2  -8    1.90    3.50
   1  -2   8    6.50    2.80
  -1  -3   8   95.59    9.30
   1  -3  -8  108.89    9.20
   1   3   8   88.29    9.90
  -1  -3   8  102.09    8.70
  -1   3  -8   75.39   10.80
  -1   3  -8   65.09   13.80
   1  -3  -8  106.29   11.10
   1  -3  -8  114.09   12.10
  -1  -3   8  106.79   11.60
  -1   3  -8   80.69    8.80
  -1   3   8   92.19    9.00
  -1  -3  -8  115.59   17.80
  -1  -3  -8  116.99   11.40
   1  -3   8   89.19    9.20
   1   3  -8  130.59   15.90
  -1  -3  -8  105.89    9.10
   1   3  -8   98.29    9.20
   1   3  -8   78.39    8.40
   1  -3   8   94.79    8.90
  -1  -3  -8  109.99   11.10
   1  -4  -8   16.90    5.60
  -1   4  -8    5.00    9.10
  -1   4  -8   17.60    3.90
  -1   4  -8  -12.50   12.30
   1  -4  -8   18.50    7.40
   1   4   8   14.00    5.60
  -1   4  -8   13.40    3.40
  -1  -4   8   11.70    3.60
  -1  -4   8   13.60    3.50
  -1  -4   8   12.00    5.90
   1  -4  -8   16.40    4.30
  -1  -4  -8   14.80    7.10
   1   4  -8   17.40   10.00
   1  -4   8   16.70    4.40
  -1   4   8   14.10    4.60
  -1  -4  -8   20.10    3.80
  -1  -4  -8   20.90    4.80
  -1  -4  -8   14.90    5.50
  -1  -4  -8   14.50   10.50
  -1  -5   8   87.29    8.50
   1  -5  -8   98.69   10.50
   1   5   8   84.69   12.00
  -1  -5   8   82.49    8.50
   1  -5  -8   85.59    9.10
  -1   5  -8   63.69    9.90
  -1  -5   8   65.79    6.90
  -1  -5   8   85.69   12.10
   1  -5  -8   95.59   12.30
  -1   5  -8   91.79   14.20
  -1   5  -8   30.40   18.10
  -1   5   8   74.89   10.30
   1  -5   8   67.49    8.20
   1  -5   8   80.09    8.50
  -1  -5  -8   69.79    8.20
   1   5  -8  127.09   18.10
  -1  -5  -8   54.49   15.90
  -1  -5  -8   95.89    9.00
  -1  -5  -8   60.49   11.10
  -1  -6   8    2.20    4.90
   1  -6  -8   12.90    5.00
  -1   6  -8    0.40   16.20
   1  -6  -8   13.70    8.70
  -1  -6   8    1.90    2.80
  -1  -6   8    6.00    7.90
   1   6   8    4.30    8.10
   1  -6  -8    5.20    5.10
   1  -6   8    2.00    4.00
  -1  -6  -8   13.10    4.50
   1  -6   8    4.10    4.90
  -1  -6  -8    3.30   11.50
  -1  -6  -8    5.90    7.00
  -1  -6  -8    4.40    5.20
  -1   6   8    5.90    7.10
   1   6  -8   10.60   13.20
  -1   7  -8   66.59   25.00
   1   7   8   57.59   12.90
   1  -7  -8   59.89   12.40
  -1  -7   8   55.29    8.60
   1  -7  -8   70.69    8.70
  -1  -7   8   46.30   12.50
   1  -7  -8   51.99    8.90
  -1  -7   8   49.80    7.00
  -1  -7  -8   61.89   13.10
   1  -7   8   66.79    9.50
  -1  -7  -8   50.19   15.60
   1  -7   8   34.90    7.40
   1   7  -8   70.49   19.30
  -1  -7  -8   83.09    8.80
  -1   7   8   51.89   11.80
  -1  -7  -8   64.59   10.10
  -1  -8   8    7.10   12.10
  -1  -8   8    1.60    7.20
   1  -8  -8   -3.30    8.00
   1   8   8    5.30   12.90
   1  -8  -8    6.10   10.10
  -1   8  -8    8.60   20.80
   1  -8   8   -4.80    7.40
  -1  -8  -8    3.40   12.30
  -1  -8  -8    4.60    8.10
   1   8  -8   24.70   18.10
  -1   8   8    1.70   10.80
   1  -9  -8   54.19   15.40
  -1  -9   8   46.20   10.30
   1  -9  -8   29.40    9.80
  -1   9  -8   67.89   26.80
   1   9   8   32.50   15.50
  -1  -9   8   25.00   15.70
  -1  -9  -8   53.79   17.00
  -1  -9  -8   40.50   11.40
   1  -9   8   35.70   10.60
   1   9  -8   73.59   25.80
   1 -10  -8    4.30   12.40
  -1 -10   8    3.10    9.30
  -1 -10   8   -1.00   17.40
  -1  10  -8    2.90   24.10
   1 -10  -8    3.30   11.70
   1 -10   8    9.80   11.00
  -1 -10  -8   -5.80   15.70
  -1 -10  -8   -0.40    9.90
   1  10  -8   36.50   26.30
   2   0  -8 1008.60   81.59
  -2   0   8  992.30   85.09
  -2   0   8 1047.70   81.59
   2   0  -8  942.31   81.69
  -2   0  -8 1086.49   81.99
   2   0  -8 1026.50   82.19
  -2   0   8 1005.20   81.89
  -2   0  -8 1056.99   81.89
  -2   1  -8  245.98   19.90
  -2   1  -8  239.18   20.40
   2  -1  -8  231.28   18.70
   2  -1  -8  220.18   19.90
  -2  -1   8  201.88   22.10
   2  -1  -8  246.58   20.30
  -2  -1   8  208.58   20.40
  -2  -1   8  259.77   19.40
   2   1  -8  227.08   18.40
   2   1  -8  255.37   19.40
  -2   1   8  239.08   19.50
   2  -1   8  228.88   19.00
   2   1  -8  233.78   19.90
  -2   1   8  216.48   22.30
  -2  -1  -8  233.98   20.10
  -2  -1  -8  200.68   18.70
   2  -1   8  233.78   19.50
   2  -1   8  230.28   19.70
   2   1  -8  221.48   21.00
  -2  -1  -8  246.08   20.00
  -2   2  -8 4193.28  310.47
   2  -2  -8 3821.52  309.77
  -2   2  -8 3832.92  311.97
   2  -2  -8 3829.02  310.67
  -2  -2   8 4410.36  309.57
   2  -2  -8 3871.11  311.17
  -2  -2   8 3971.20  311.77
  -2  -2   8 3952.30  309.77
  -2   2  -8 3862.41  310.37
   2   2  -8 3760.32  310.47
  -2  -2  -8 3983.70  310.97
   2   2  -8 3847.52  312.67
  -2   2   8 4102.49  311.87
   2  -2   8 3883.31  310.07
   2   2  -8 3622.14  309.47
  -2  -2  -8 3855.31  311.47
  -2  -2  -8 3971.50  310.37
  -2   3  -8   70.69    8.20
  -2  -3   8   81.29   11.00
   2  -3  -8   70.79    7.70
   2  -3  -8   84.39    9.00
  -2  -3   8   82.59    7.00
  -2   3  -8   80.09    8.10
  -2  -3   8   70.19    7.00
   2  -3  -8   80.69   10.00
  -2  -3  -8   79.79   15.90
  -2   3   8   82.49   10.20
   2   3  -8   73.59    7.00
  -2  -3  -8   82.19    8.30
  -2  -3  -8   82.59    9.30
   2  -3   8   76.09    7.90
   2   3  -8   79.09   12.70
   2   4   8 1140.79   88.09
   2  -4  -8 1114.29   86.79
   2  -4  -8 1112.69   88.09
  -2   4  -8  962.20   90.49
  -2   4  -8 1132.29   86.59
  -2  -4   8 1182.68   85.49
  -2  -4   8 1174.58   85.79
  -2  -4   8  931.81   85.69
   2  -4  -8 1105.49   86.09
   2   4  -8 1127.09   90.89
  -2  -4  -8  984.50   86.29
   2  -4   8 1032.20   86.39
  -2   4   8 1077.39   87.49
   2  -4   8 1111.29   86.29
  -2  -4  -8  891.01   92.49
  -2  -4  -8 1110.89   87.19
  -2  -5   8   36.20    4.90
  -2  -5   8   36.20    9.00
  -2   5  -8   -4.20   16.50
   2  -5  -8   43.40    6.50
   2  -5  -8   44.20    6.60
   2   5   8   45.80   10.10
  -2  -5   8   46.10    6.10
   2  -5  -8   51.59   10.30
   2  -5   8   44.70    7.10
  -2   5   8   34.20    8.60
   2  -5   8   37.70    6.40
  -2  -5  -8   29.10    7.20
  -2  -5  -8   47.30   17.30
  -2  -5  -8   42.60    7.00
  -2  -5  -8   44.70    7.10
   2   5  -8   55.29   14.30
   2  -6  -8  462.95   41.10
  -2  -6   8  433.46   41.30
  -2   6  -8  455.65   42.90
  -2  -6   8  464.05   37.50
   2   6   8  540.15   42.20
   2  -6  -8  462.05   38.70
  -2  -6   8  481.35   38.10
   2  -6  -8  444.06   38.30
  -2  -6  -8  419.86   47.50
   2  -6   8  443.66   38.40
  -2   6   8  470.45   41.20
  -2  -6  -8  476.45   40.50
  -2  -6  -8  471.35   38.90
  -2  -6  -8  448.46   38.60
   2   6  -8  462.35   46.70
   2  -6   8  455.65   38.70
  -2  -7   8   12.50   10.50
   2  -7  -8   23.70   10.10
  -2  -7   8   16.80    6.50
  -2   7  -8   -6.50   20.70
   2  -7  -8   15.10    5.10
   2  -7  -8   20.80    7.70
  -2   7  -8   46.90   13.40
   2   7   8   15.60   11.10
  -2  -7  -8  -19.00   16.50
  -2  -7  -8   11.80    9.70
   2  -7   8   18.20    7.00
   2   7  -8   25.80   16.30
  -2  -7  -8   13.00    7.70
  -2   7   8   18.80   10.60
   2  -7   8   20.60    6.40
  -2  -7  -8   24.60    7.00
   2   8   8  571.24   49.30
   2  -8  -8  491.25   44.10
  -2  -8   8  598.74   44.00
   2  -8  -8  510.55   47.20
  -2   8  -8  459.25   62.89
  -2  -8   8  561.54   49.40
   2  -8   8  477.95   44.40
   2   8  -8  575.24   55.39
  -2   8   8  480.45   48.10
  -2  -8  -8  525.65   44.40
  -2  -8  -8  495.45   51.89
   2  -8   8  535.55   44.20
   2  -9  -8   47.70   10.70
  -2   9  -8   47.20   29.50
   2  -9  -8   32.60   13.20
  -2  -9   8   43.10   16.80
   2   9   8   34.20   16.50
  -2  -9   8   31.20    9.80
  -2  -9  -8   50.69   12.20
  -2  -9  -8   40.50   19.90
   2  -9   8   30.00   11.20
   2   9  -8   58.99   23.10
  -2 -10   8   54.99   14.60
   2 -10  -8   69.19   18.60
   2 -10  -8   55.59   12.90
  -2  10  -8   89.69   34.30
  -2 -10   8   57.69   21.60
  -2 -10  -8   69.69   15.30
  -2 -10  -8   57.59   21.10
   2  10  -8  107.69   29.20
   2 -10   8   63.89   13.30
   3   0  -8  107.59    9.20
  -3   0   8  104.89   16.70
  -3   0  -8  114.49   11.50
  -3   0   8  111.09   11.70
   3   0  -8  132.49   11.60
  -3   0  -8  112.99   11.60
   3   0  -8  108.39   11.00
   3   0  -8  138.39   13.00
  -3  -1   8   23.70    4.40
  -3   1  -8   28.70    6.10
  -3   1  -8   21.70    4.80
   3  -1  -8   29.70    5.50
  -3  -1   8   16.30    8.30
   3  -1  -8   24.70    3.10
   3  -1  -8   27.30    5.20
  -3  -1  -8   21.50    5.30
  -3   1   8   28.50    5.30
   3   1  -8   25.90    4.90
  -3   1   8   21.30    8.40
   3  -1   8   19.50    3.40
   3   1  -8   28.70    6.80
   3  -1   8   36.50    5.60
   3  -2  -8  160.88   14.10
  -3   2  -8  163.48   16.20
   3  -2  -8  167.68   15.50
  -3  -2   8  167.08   14.60
   3  -2  -8  165.98   16.00
  -3  -2   8  162.28   13.40
  -3  -2   8  170.58   18.30
  -3   2  -8  170.88   15.10
  -3   2   8  158.78   13.90
   3   2  -8  173.98   18.10
  -3   2   8  175.98   17.70
   3  -2   8  175.08   15.00
  -3  -2  -8  182.68   15.70
  -3  -2  -8  163.78   15.90
  -3   3  -8   16.60    4.30
   3  -3  -8   22.70    4.10
   3  -3  -8   15.80    4.60
  -3   3  -8   23.30    9.20
  -3  -3   8   16.70    2.80
   3  -3  -8   24.10    6.60
  -3  -3   8   18.40    7.40
  -3  -3   8   15.30    3.70
  -3  -3  -8   20.10    5.80
  -3   3   8   23.60    6.80
  -3  -3  -8   19.20    5.20
   3   3  -8   32.30    9.50
  -3   3   8   22.80    3.70
   3  -3   8   15.10    4.50
  -3   4  -8   31.60    5.10
   3  -4  -8   33.20    5.70
   3  -4  -8   29.50    5.60
  -3  -4   8   29.40    4.40
   3  -4  -8   35.70    8.20
  -3   4  -8    3.20   10.50
  -3  -4   8   28.60    4.50
  -3  -4   8   22.80    8.10
   3  -4   8   24.70    6.10
  -3  -4  -8   62.49   17.70
   3  -4   8   36.70    6.00
  -3  -4  -8   25.30    6.60
  -3  -4  -8   30.50    6.90
   3   4  -8   39.30   11.70
  -3  -5   8   42.70    6.10
  -3  -5   8   21.00    8.10
  -3  -5   8   74.19    6.90
  -3  -5   8   55.19   10.80
  -3   5  -8   60.39   16.00
  -3   5   8   44.70   11.10
  -3  -5  -8  116.49   25.40
   3  -5   8   40.90    7.80
  -3  -6   8    8.00    9.10
   3   6   8    2.50   10.00
  -3  -6   8    3.20    5.10
   3  -6  -8    4.60    5.30
   3  -6  -8   19.20    9.00
  -3  -6   8    3.50    4.70
   3  -6   8    3.70    6.50
  -3  -6  -8    1.90    6.90
  -3   6   8    6.40    9.10
  -3  -6  -8   -1.90   21.60
   3   6  -8   14.70   13.40
   3  -6   8    6.80    5.80
  -3  -6  -8   14.30    7.10
  -3  -6  -8    6.70    6.00
  -3  -7   8   35.00    7.40
   3   7   8   39.90   14.20
   3  -7  -8   38.50    8.10
  -3  -7   8   32.40   13.60
  -3   7  -8   47.80   16.20
   3  -7  -8   37.00   11.40
  -3   7   8   27.90   11.60
   3  -7   8   36.40    8.40
  -3  -7  -8   40.50    9.20
  -3  -7  -8   39.60    9.60
   3   7  -8   56.39   18.70
  -3  -7  -8   38.90   10.00
  -3  -7  -8   31.20   24.80
   3  -7   8   28.40    8.20
   3  -8  -8    7.60   10.30
  -3   8  -8  -39.20   23.90
  -3   8  -8   15.30   13.20
   3   8   8    1.10   13.40
  -3  -8   8    8.00   12.60
  -3  -8   8   -0.70    6.90
   3  -8  -8    6.40    8.70
  -3  -8  -8    7.10   10.60
  -3   8   8    1.70   13.60
  -3  -8  -8    4.50   13.20
   3  -8   8    8.70    9.10
  -3  -8  -8    1.50    7.90
   3  -8   8    2.10    7.20
   3   8  -8   27.90   19.50
   3   9   8   25.30   16.80
   3  -9  -8   17.20   11.90
   3  -9  -8   10.80   10.30
  -3  -9   8   18.10    8.70
  -3  -9   8   17.70   15.80
  -3   9  -8    3.90   29.40
   3   9  -8   40.00   22.10
   3  -9   8   33.10   11.30
  -3  -9  -8    2.50   22.20
  -3  -9  -8   38.70   11.80
  -3  10  -8   16.40   33.20
  -3 -10   8   -3.40   17.70
   3 -10  -8    2.50   14.10
   3 -10  -8    1.10   11.20
  -3 -10   8    1.30   12.60
  -3 -10  -8    4.70   10.70
  -3 -10  -8   -3.30   21.20
   3 -10   8   -2.30   12.30
   3  10  -8   31.90   27.50
  -4   0  -8 1717.73  133.49
   4   0  -8 1363.46  131.49
  -4   0  -8 1805.52  133.49
   4   0  -8 1812.52  133.49
  -4   1  -8  469.15   36.70
   4  -1  -8  431.66   36.30
   4  -1  -8  376.66   34.10
  -4   1  -8  442.26   35.90
   4  -1   8  433.66   35.70
   4   1  -8  441.96   35.90
  -4  -1  -8  396.66   34.40
   4   1  -8  456.35   38.40
  -4   1   8  427.66   34.10
  -4  -1  -8  437.06   36.30
  -4   1   8  397.96   39.90
  -4  -1  -8  445.86   36.40
  -4  -2   8  901.91   81.79
   4  -2  -8  945.91   77.19
   4  -2  -8  936.61   78.99
  -4   2  -8  987.20   79.19
  -4   2  -8  948.31   78.29
  -4   2   8 1022.20   78.09
  -4  -2  -8  963.60   78.99
   4   2  -8  985.60   81.19
  -4   2   8 1022.40   80.89
   4  -2   8 1040.10   78.29
  -4  -2  -8  887.11   78.49
   4  -2   8  971.30   77.99
  -4  -2  -8 1004.00   78.39
  -4   3  -8   20.90    8.40
   4  -3  -8   27.20    4.70
   4  -3  -8   26.20    7.30
  -4  -3   8   19.60   10.10
  -4  -3   8   28.50    3.30
  -4   3  -8   22.50    5.10
  -4   3   8   27.90    5.30
  -4  -3  -8   25.50    5.80
   4   3  -8   27.40   10.10
  -4  -3  -8   23.70    7.50
  -4   3   8   26.70    8.10
   4  -3   8   27.00    6.20
  -4  -3  -8   25.90    6.90
  -4   4  -8  992.30   75.49
  -4  -4   8 1006.00   74.39
   4  -4  -8  890.21   76.89
  -4  -4   8  949.31   78.19
  -4   4  -8  894.01   78.49
   4  -4  -8  949.51   74.99
  -4  -4  -8  927.71   76.39
  -4  -4  -8  859.61   76.09
   4  -4   8  956.90   75.49
   4   4  -8  989.50   80.99
  -4   4   8  918.41   74.99
  -4  -4  -8  903.61   76.49
  -4   4   8  912.61   77.59
  -4  -5   8    2.60    3.80
   4  -5  -8    9.30    7.40
  -4   5  -8    2.80    4.20
   4  -5  -8    2.10    5.10
  -4   5  -8   -0.10   11.70
  -4  -5   8   -3.30    8.30
   4   5  -8    8.20   12.80
  -4  -5  -8    8.20    7.50
   4  -5   8    5.00    6.40
  -4  -5  -8    1.90   17.30
   4  -5   8   10.40    6.40
  -4  -5  -8    0.80    6.40
   4  -6  -8  388.96   33.90
  -4  -6   8  441.06   33.50
  -4   6  -8  338.37   42.40
   4  -6  -8  404.16   37.40
  -4  -6   8  387.96   38.30
  -4  -6  -8  402.36   35.70
  -4   6   8  332.07   39.00
  -4  -6  -8  371.16   48.40
  -4  -6  -8  421.66   35.80
   4  -6   8  433.86   34.80
   4   6  -8  424.16   43.80
  -4  -6  -8  434.86   34.90
   4  -6   8  411.96   35.50
  -4  -7   8  129.39   12.90
   4  -7  -8  119.59   17.90
  -4  -7   8   89.79   18.50
   4  -7  -8  120.69   14.40
   4   7   8  121.29   21.50
   4  -7   8  127.59   14.60
  -4  -7  -8  153.58   36.10
  -4  -7  -8  112.19   16.20
  -4   7   8  113.79   20.40
   4  -7   8  110.19   15.60
  -4  -7  -8  102.59   14.10
   4   7  -8  127.39   25.80
  -4  -7  -8  124.69   16.00
  -4   8  -8  222.88   31.10
   4   8   8  205.28   29.40
   4  -8  -8  185.18   20.40
  -4  -8   8  204.68   19.20
   4  -8  -8  184.58   23.10
  -4  -8   8  183.18   26.90
   4  -8   8  202.18   20.90
   4   8  -8  198.68   34.20
  -4  -8  -8  186.78   21.40
  -4  -8  -8  197.88   43.10
  -4  -8  -8  204.58   23.00
  -4  -8  -8  174.18   20.50
   4  -9  -8   18.80   12.40
  -4   9  -8  -16.70   36.20
   4  -9  -8   19.90   11.30
  -4  -9   8   28.80   19.60
  -4  -9   8   13.30    8.40
   4   9   8   18.50   18.10
   4   9  -8   41.30   26.40
  -4  -9  -8  -29.30   25.70
   4  -9   8   19.20   10.10
  -4  -9  -8   11.30   11.50
   4 -10  -8  140.09   19.90
   4 -10   8  141.09   20.50
  -4 -10  -8  140.19   21.50
  -5   0  -8  178.98   17.90
   5   0  -8  201.68   18.20
   5   0   8  170.78   14.80
   5  -1  -8   15.50    6.60
  -5   1  -8   22.20    7.90
  -5  -1   8    6.70   11.60
   5  -1  -8    9.00    3.10
  -5  -1  -8   12.00    3.00
  -5  -1  -8   12.30    6.50
  -5   1   8   11.20    9.80
  -5   1   8    6.40    2.60
   5  -1   8   12.10    4.50
  -5  -1  -8   20.90    7.20
   5  -1   8    8.90    6.20
   5  -2  -8   88.29    9.10
  -5  -2   8   51.19   16.40
   5  -2  -8  106.99   12.80
  -5   2  -8   91.79   11.40
  -5   2  -8  106.39   13.40
  -5  -2  -8  106.29   13.80
  -5  -2  -8   97.59   12.60
  -5   2   8  108.39   15.90
  -5  -2  -8  106.49   13.00
   5  -2   8  118.79   12.40
   5   2  -8   99.59   15.20
  -5   2   8  105.49   11.40
   5  -2   8   77.09   12.90
   5  -3  -8   31.50    5.40
  -5  -3   8   34.30   12.20
  -5   3  -8   61.09   10.50
   5  -3   8   40.60    6.80
  -5  -3  -8   29.20    7.10
  -5  -3  -8   29.30    8.30
  -5  -4   8   49.70   14.40
  -5   4  -8   55.89   13.60
  -5   4  -8   42.80    7.90
  -5  -4   8   47.50    5.70
   5  -4  -8   46.70    7.30
   5  -4  -8   56.19   11.30
  -5  -4  -8   54.49   10.40
  -5   4   8   50.49    8.10
  -5   4   8   63.39   12.80
  -5  -4  -8   56.59   10.40
   5  -4   8   55.99    9.00
   5   4  -8   47.40   14.00
  -5  -4  -8   45.20    9.90
  -5  -5   8   12.00   12.30
   5  -5  -8    9.30    5.70
  -5  -5   8    7.20    4.10
  -5   5  -8   -6.60   12.60
   5  -5  -8   11.60    8.90
  -5   5  -8    3.20    5.30
  -5  -5  -8    5.70    7.50
   5  -5   8    5.80    6.30
  -5  -5  -8   12.90    9.00
   5  -5   8    1.30    6.70
   5   5  -8   24.30   13.90
  -5   5   8   -4.80    7.10
  -5  -5  -8   10.30    8.60
   5  -6  -8   14.20   10.10
  -5  -6   8   10.70    5.40
  -5   6  -8    8.10   15.00
   5  -6  -8    8.60    6.70
  -5  -6   8   10.00   11.90
  -5  -6  -8   53.59   25.10
   5   6  -8   11.50   15.30
  -5  -6  -8   13.70   10.70
   5  -6   8   19.70    7.70
  -5  -6  -8   11.00    9.80
  -5  -6  -8    4.00    8.10
  -5  -6  -8    6.50    8.10
   5  -6   8   15.10    8.00
   5  -7  -8   66.19   14.70
  -5  -7   8   27.00   15.00
   5  -7  -8   52.29   10.00
  -5   7  -8   -4.40   21.40
  -5  -7  -8   64.39   11.50
   5   7  -8   71.59   21.50
  -5   7   8   37.40   17.70
  -5  -7  -8   44.60   14.30
   5  -7   8   57.69   11.00
   5  -7   8   27.20   10.90
  -5  -7  -8   75.79   13.20
  -5  -7  -8   88.39   13.70
  -5  -7  -8   74.89   31.20
   5  -8  -8    5.40    9.20
  -5  -8   8   -0.50   15.10
  -5   8  -8  -58.99   30.50
   5  -8  -8    8.10   12.10
   5   8  -8   19.40   21.20
   5  -8   8    0.20    9.00
  -5  -8  -8   -4.30   12.70
   5  -8   8   -1.40    8.90
  -5  -8  -8    2.20   11.20
  -5  -8  -8   38.20   32.90
  -5  -8  -8    8.70   11.20
  -5  -8  -8    0.10    9.80
   5  -9  -8   29.80   11.60
   5  -9  -8   26.20   15.70
  -5  -9   8   31.70   21.00
  -5   9  -8  -36.80   35.30
   5   9  -8   41.10   27.40
   5  -9   8   25.90   12.00
  -5  -9  -8    8.30   16.50
  -5  -9  -8   26.70   11.70
  -5  -9  -8   -9.40   27.10
  -6   0  -8  973.70   78.19
  -6   0   8  976.10   75.09
   6   0  -8  946.11   78.19
   6   0   8  907.31   75.69
  -6  -1   8  110.29   24.30
   6  -1  -8  104.29   11.60
  -6   1  -8  114.79   14.70
   6  -1  -8  128.59   15.50
  -6  -1  -8  131.89   14.80
  -6   1   8  118.49   14.40
  -6   1   8  118.89   10.20
   6  -1   8  124.09   16.60
   6  -1   8  122.89   12.30
  -6   1   8  115.29   19.40
  -6  -1  -8  105.89   11.00
   6  -2  -8  336.37   27.70
   6  -2  -8  356.96   31.40
  -6   2  -8  329.57   30.50
  -6   2   8  328.97   29.80
  -6   2   8  380.56   34.40
  -6  -2  -8  366.66   31.00
  -6  -2  -8  264.87   29.50
   6  -2   8  333.17   29.40
  -6  -2  -8  337.17   30.30
   6  -3  -8  103.39   14.80
  -6   3  -8   99.29   14.80
  -6  -3   8   56.49   17.90
   6  -3  -8   82.29    9.60
   6  -3   8  120.29   13.00
   6   3  -8   90.39   18.00
  -6  -3  -8   91.19   12.90
  -6   3   8  108.79   17.00
  -6   3   8   84.69   11.80
  -6  -3  -8   60.29   14.20
  -6  -3  -8  108.19   14.60
  -6   4  -8  351.96   29.50
   6  -4  -8  315.17   27.70
   6  -4  -8  333.57   31.40
  -6   4  -8  333.47   31.80
  -6  -4   8  343.37   37.20
  -6  -4  -8  331.67   30.60
  -6  -4  -8  270.27   31.20
  -6   4   8  317.17   28.90
   6  -4   8  332.77   28.60
  -6  -4  -8  347.87   31.00
  -6   4   8  321.27   31.90
   6   4  -8  318.97   35.30
  -6   5  -8   13.20   14.00
   6  -5  -8   13.50    6.50
   6  -5  -8   15.90   11.70
  -6  -5   8    8.30   12.80
  -6   5  -8    7.00    6.50
   6  -5   8   13.60    8.30
   6   5  -8   15.00   15.20
  -6  -5  -8   12.60   10.40
  -6  -5  -8   12.60   10.40
  -6  -5  -8    7.90    9.10
   6  -6  -8  358.26   35.40
  -6  -6   8  347.57   37.80
   6  -6  -8  357.16   30.40
  -6   6  -8  244.18   37.40
  -6  -6  -8  363.86   33.30
   6  -6   8  362.26   31.50
   6   6  -8  356.06   40.80
  -6  -6  -8  335.97   35.10
  -6  -6  -8  367.56   33.30
  -6  -7   8    7.90   17.10
  -6   7  -8   34.90   22.20
   6  -7  -8    2.90    7.60
   6  -7  -8    7.50   12.20
  -6  -7  -8    3.40    8.60
  -6  -7  -8   53.49   28.20
   6  -7   8    2.40    9.70
  -6  -7  -8   -0.60   11.60
  -6  -7  -8    1.20    9.60
   6   7  -8    8.40   18.90
   6  -7   8    5.20    9.20
  -6  -7  -8    3.30   12.70
   6  -8  -8   59.19   16.60
  -6  -8   8   75.09   23.90
   6  -8  -8   79.29   13.40
  -6  -8  -8  137.69   38.10
  -6  -8  -8   81.09   16.40
   6  -8   8   65.59   14.20
  -6  -8  -8   75.99   14.10
  -6  -8  -8   59.89   18.70
   6  -8   8   75.69   15.60
   6   8  -8   88.69   27.50
  -6  -8  -8   55.99   15.60
  -7   0  -8   83.29   14.10
  -7   0   8   44.10   20.00
  -7   0   8   63.19   13.00
   7   0  -8   75.79   13.10
   7  -1  -8   28.60   10.00
  -7  -1   8  -22.20   16.70
   7  -1  -8   -1.70    6.40
  -7   1  -8   29.20   10.40
  -7   1   8   34.60   10.20
  -7   1   8   24.80   14.60
  -7  -1  -8   22.00    5.10
  -7  -1  -8   46.20   10.90
   7  -2  -8   41.60    7.90
  -7  -2   8   30.90   21.10
  -7   2  -8   45.10   11.90
   7  -2  -8   55.69   13.10
  -7  -2  -8   52.99   12.00
  -7  -2  -8   45.90    8.90
   7  -2   8   44.30   11.20
  -7   2   8   64.89   12.00
  -7   2   8   51.49   14.30
   7  -3  -8   16.70   10.40
   7  -3  -8    1.90    5.60
  -7  -3   8   -3.90   15.30
  -7   3  -8   10.10   11.20
  -7  -3  -8   30.80   11.80
  -7  -3  -8    7.90    7.80
   7  -3   8   13.60    7.50
  -7   3   8   19.10   12.20
  -7  -3  -8   33.20    8.70
  -7   3   8   19.20    8.80
  -7   4  -8   21.20    9.50
  -7  -4   8   -8.00   16.90
  -7   4  -8   23.30   12.40
   7  -4  -8   25.30   11.70
   7  -4  -8   25.10    7.30
  -7   4   8   23.30    9.60
  -7  -4  -8   36.00   11.70
   7  -4   8   28.20    9.40
  -7  -4  -8   25.80   11.50
  -7   4   8   34.90   12.60
  -7  -4  -8   33.90   12.90
   7  -5  -8   45.30   13.30
  -7  -5   8   28.10   19.20
   7  -5  -8   31.20    8.20
  -7   5  -8   46.60   16.10
  -7   5  -8   16.20    8.00
   7  -5   8   39.00   10.40
  -7  -5  -8   87.79   15.10
  -7  -5  -8   23.10   19.10
   7   5  -8   66.49   20.50
  -7  -5  -8   66.49   12.80
  -7  -6   8   19.50   17.70
   7  -6  -8   13.70   12.70
  -7   6  -8   17.80   17.90
   7  -6  -8   22.10    8.80
   7  -6   8   20.60   10.20
  -7  -6  -8   20.10   11.50
  -7  -6  -8    9.20   11.10
   7   6  -8   21.10   18.90
  -7  -7   8   15.30   19.90
   7  -7  -8   15.20   13.60
   7  -7  -8   14.30    9.20
  -7   7  -8   70.29   19.70
   7   7  -8   11.90   20.90
  -7  -7  -8    3.30   11.20
   7  -7   8   15.70    9.70
  -7  -7  -8   76.89   29.60
  -7  -7  -8   14.30   10.30
  -7  -7  -8    9.50   13.40
   7  -8  -8   10.80   10.70
   7  -8  -8    2.40   14.10
  -7  -8   8    2.20   21.60
   7   8  -8   15.40   25.70
   7  -8   8   -1.00   11.60
  -7  -8  -8   82.69   29.30
  -7  -8  -8   -1.20   14.10
  -7  -8  -8   -0.20   10.50
  -8   0   8   48.20   13.90
  -8   0  -8   49.90   13.70
  -8   0   8   37.90   18.60
  -8  -1   8  -22.90   17.20
  -8  -1   8   22.10   13.30
   8  -1  -8   16.50   11.00
  -8   1  -8   30.60   13.60
  -8  -1  -8    4.30   11.30
  -8   1   8   22.10   11.50
  -8   1   8   20.10   14.50
   8  -2  -8  409.46   38.50
  -8   2  -8  435.56   39.40
  -8  -2   8  365.26   53.79
  -8  -2   8  459.65   40.30
  -8   2   8  441.26   38.00
   8  -2   8  374.36   38.40
  -8  -2  -8  340.07   36.90
  -8  -2  -8  412.96   38.80
  -8   2   8  429.06   41.30
  -8   3  -8    4.90   12.50
   8  -3  -8    2.50   10.90
  -8  -3   8   -2.00   19.80
  -8  -3  -8    4.50   11.40
  -8   3   8    9.40   10.60
  -8   3   8    9.30   13.70
   8  -3   8   13.10   10.30
  -8  -3  -8    2.30   10.90
  -8   4  -8  139.79   18.70
   8  -4  -8  152.28   16.30
  -8  -4   8   97.19   28.10
  -8   4  -8  179.88   24.40
   8  -4  -8  145.09   21.10
  -8  -4  -8  162.38   21.80
   8  -4   8  162.98   18.50
  -8   4   8  156.88   20.00
  -8  -4  -8  165.28   20.60
  -8   4   8  162.18   24.40
  -8   5  -8    6.00   10.00
  -8  -5   8    5.90   19.30
  -8   5  -8   13.20   15.30
   8  -5  -8   13.90    8.30
   8  -5  -8   16.20   12.90
   8  -5   8   28.30   10.30
  -8  -5  -8   20.00   14.40
  -8  -5  -8    7.90   12.70
   8  -6  -8   55.79   18.40
  -8  -6   8   49.99   22.60
  -8   6  -8   64.19   22.80
   8  -6  -8   62.99   11.70
   8  -6   8   49.40   12.80
  -8  -6  -8   62.49   17.50
  -8  -6  -8   63.29   17.80
   8  -7  -8   -1.30    9.40
  -8  -7   8   16.00   21.70
   8  -7  -8   -2.30   14.00
  -8  -7  -8   18.60   11.20
  -8  -7  -8   -1.30   15.20
   8  -7   8   16.20   12.30
  -8  -7  -8   36.10   27.70
  -9   0   8  -12.50   18.50
  -9   0   8    1.90   13.60
  -9   0  -8    8.10   12.70
  -9  -1   8   -3.60   21.90
  -9   1  -8   28.80   13.70
  -9  -1   8   13.90   15.70
  -9  -1  -8   32.50   15.90
  -9   1   8   18.80   13.00
  -9   1   8   31.50   16.70
  -9   2  -8   14.10   13.10
  -9  -2   8   28.80   17.50
   9  -2  -8   26.70   14.90
  -9   2   8   25.50   17.10
  -9  -2  -8   17.90   13.50
  -9  -2  -8   30.60   16.00
  -9   2   8   16.70   13.30
  -9  -3   8   18.30   17.80
  -9   3  -8   12.50   11.50
  -9  -3   8   -0.20   25.40
   9  -3  -8   22.70   13.80
  -9   3  -8   17.60   15.30
   9  -3   8   37.20   13.00
  -9  -3  -8   22.60   13.80
  -9   3   8   23.70   16.50
  -9  -3  -8    7.40   13.30
  -9   3   8   13.50   13.20
  -9  -4   8   19.30   17.10
  -9   4  -8   -3.90   12.10
   9  -4  -8   24.00   14.20
  -9  -4   8   13.30   22.90
  -9   4  -8   24.70   15.70
  -9  -4  -8   13.20   15.50
  -9   4   8   13.80   14.20
  -9  -4  -8    2.80   13.80
   9  -4   8   34.80   11.80
  -9  -5   8   13.30   18.40
  -9  -5   8   29.90   20.40
  -9   5  -8   21.40   17.30
   9  -5  -8   14.80   14.40
  -9  -5  -8    8.20   14.60
  -9  -5  -8   19.20   14.30
   9  -5   8   23.50   11.50
   9  -6  -8   17.20   15.00
   9  -6   8    8.80   12.10
 -10   0  -8  224.18   32.40
 -10   0   8  277.97   34.60
 -10   0   8  262.77   38.30
 -10  -1   8   13.20   23.00
 -10  -1   8   -6.60   16.60
 -10   1  -8   -8.30   16.50
 -10   1   8    1.70   15.40
 -10  -1  -8   -8.30   13.80
 -10   1   8   32.80   20.20
 -10  -1  -8   -0.50   14.50
 -10  -2   8   36.60   17.40
 -10  -2   8  -35.70   23.90
 -10   2  -8   11.90   13.90
 -10   2  -8   30.30   17.80
 -10   2   8   39.30   17.10
 -10  -2  -8   23.90   15.40
 -10   2   8   40.40   18.70
 -10  -2  -8   20.10   18.50
 -10   3  -8    6.80   16.80
 -10  -3   8   -2.60   16.20
  10  -3  -8   -1.80   14.00
 -10   3  -8  -17.70   12.40
 -10  -3  -8  -14.90   14.20
 -10   3   8   19.80   18.40
 -10   3   8    5.80   16.10
 -10  -3  -8   -0.60   17.00
 -10  -4   8   65.69   33.80
 -10   4  -8  122.49   24.50
 -10  -4   8  103.89   28.80
  10  -4  -8  111.29   23.70
  10  -4   8  109.29   19.80
 -10  -4  -8  123.29   25.30
   0   0  -9    9.10    4.80
   0   0  -9    3.00    5.10
   0   0   9   15.90    5.00
   0   0  -9   14.80    3.60
   0   0   9    8.60    3.70
   0   0  -9    9.60    5.60
   0   0  -9    6.20    5.40
   0   0   9   11.90    5.50
   0  -1   9    1.70    2.20
   0   1  -9   -3.40    4.30
   0  -1   9    0.50    3.40
   0   1  -9    0.90    3.50
   0   1  -9   -1.20    3.70
   0  -1  -9   -2.70    4.90
   0   1   9    1.90    3.20
   0   1  -9   -9.10    5.60
   0  -1  -9   -1.70    5.10
   0   1   9   -2.70    4.70
   0   1   9   -2.00    3.10
   0   1  -9   -7.60    5.70
   0  -1  -9   -4.00    3.70
   0  -1   9    3.00    3.20
   0   1  -9    0.70    2.10
   0  -1  -9   -0.90    2.90
   0   2   9    0.80    2.10
   0  -2   9    1.00    3.70
   0   2  -9  -12.60    5.40
   0  -2  -9   -1.60    5.80
   0  -2  -9    1.90    3.40
   0   2  -9    2.20    2.20
   0   2  -9   -0.40    8.40
   0   2  -9    3.00    2.70
   0  -2  -9    2.70    2.00
   0  -2  -9    4.30    3.00
   0  -2   9    9.50    4.00
   0   2   9    6.70    3.30
   0   2  -9   -1.20    3.90
   0  -2   9   -0.50    2.00
   0  -2  -9   -1.80    5.20
   0  -3   9    1.10    3.80
   0  -3  -9    2.40    2.50
   0   3  -9   -0.50    7.20
   0   3   9    1.10    2.60
   0  -3  -9   -6.40    6.80
   0  -3   9    0.50    2.60
   0   3  -9    2.10    2.70
   0   3  -9  -14.10    8.60
   0  -3  -9   -3.70    3.80
   0  -3  -9   -7.30    5.20
   0  -3   9    2.30    4.10
   0   4   9   48.50    7.50
   0  -4  -9   31.00   10.60
   0  -4   9   44.50    6.00
   0   4  -9   52.09    9.50
   0  -4   9   38.40    7.70
   0  -4  -9   42.00    9.60
   0  -4  -9   44.20    5.00
   0   4  -9   20.80   13.20
   0   4  -9   50.29    5.40
   0  -4  -9   49.00   10.20
   0   5   9   -3.50    5.30
   0  -5   9   -1.20    4.00
   0  -5  -9   -1.50    4.10
   0  -5   9   -1.80    2.10
   0  -5  -9   -3.10    8.70
   0  -5   9   -1.50    2.70
   0   5  -9   -3.40   11.60
   0  -5  -9   -2.80    8.00
   0  -5  -9    1.80    2.20
   0  -6  -9   55.39   12.30
   0   6  -9   72.29   20.10
   0  -6   9   17.10    3.90
   0  -6  -9   19.20    9.60
   0  -6   9   31.60    5.80
   0  -7   9    0.60    6.20
   0  -7  -9    1.80    6.80
   0  -7  -9   -7.60    6.80
   0  -7  -9   11.30   12.50
   0   7   9   -3.50    8.60
   0   7  -9   22.60   20.50
   0  -7   9   -1.00    3.70
   0  -8  -9    0.30    7.20
   0   8   9    7.80   10.60
   0   8  -9   36.20   21.10
   0  -8   9    5.10    7.60
   0  -8  -9   38.40   14.40
   0  -9  -9    9.10   14.50
   0  -9  -9    0.90    8.50
   0  -9   9   -3.50    8.60
   0   9  -9   25.00   22.80
   0  10  -9   69.39   30.70
   0 -10  -9   52.79   13.10
   0 -10  -9   47.10   17.60
   0 -10   9   61.09   12.60
   0 -10   9   52.39   20.50
   1   0   9   -0.60    2.90
   1   0  -9    1.80    3.10
  -1   0  -9   -3.80    2.90
  -1   0  -9   -1.20    4.20
   1   0   9   -0.30    3.50
  -1   0   9    0.20    2.20
  -1   0   9   -0.90    6.00
   1   0  -9    7.60    4.90
   1   0  -9    1.70    3.20
  -1   0   9   -0.60    2.40
  -1   0   9    0.90    2.50
  -1   0  -9   -0.40    3.20
  -1   0   9    0.50    2.90
   1   0   9   -3.50    3.80
  -1   0  -9    1.60    2.70
   1   0  -9    1.00    3.40
   1  -1  -9 3433.16  260.67
   1  -1  -9 3092.69  260.57
  -1  -1   9 2825.42  259.67
   1   1   9 3410.16  259.37
  -1  -1   9 3354.96  260.97
   1  -1  -9 3103.29  260.57
  -1  -1   9 3287.47  259.37
  -1  -1   9 3204.28  258.97
   1  -1  -9 3202.58  258.87
  -1   1  -9 3320.07  260.27
  -1  -1   9 3278.37  260.77
   1   1   9 3615.14  259.77
   1   1  -9 3307.67  261.27
  -1   1   9 3179.58  260.27
   1  -1   9 3376.56  259.47
  -1  -1  -9 3209.48  259.57
  -1  -1  -9 3396.46  259.47
   1  -1   9 3297.57  259.27
   1   1  -9 3143.19  259.17
   1   1  -9 3713.13  258.97
  -1  -1  -9 3482.25  260.37
  -1   1   9 3011.30  261.07
   1  -1   9 3464.15  260.27
   1   1  -9 2951.50  259.77
   1   1  -9 3396.86  261.57
   1  -2  -9  231.58   22.00
   1  -2  -9  236.28   22.20
  -1   2  -9  187.38   21.20
  -1   2  -9  183.28   23.40
  -1   2  -9  250.17   19.90
  -1  -2   9  229.08   19.40
   1   2   9  277.17   20.20
  -1  -2   9  237.38   20.50
  -1  -2   9  257.17   21.60
  -1  -2  -9  236.58   21.40
   1  -2   9  228.18   20.40
   1   2  -9  244.98   24.40
  -1   2   9  248.78   21.80
   1  -2   9  233.98   19.90
  -1  -2  -9  238.68   20.70
   1  -2   9  249.48   20.60
   1   2  -9  260.47   19.10
   1   2  -9  234.48   19.40
   1   2  -9  236.78   20.40
  -1  -2  -9  224.88   20.00
  -1  -2  -9  247.68   20.30
  -1   3  -9 2971.40  264.67
   1  -3  -9 3218.38  261.27
  -1  -3   9 3638.24  261.17
  -1  -3   9 3734.03  262.97
  -1   3  -9 3239.08  262.97
   1  -3  -9 3395.66  263.87
   1  -3  -9 3255.37  263.17
  -1  -3   9 3365.76  261.87
  -1   3  -9 3087.69  261.17
   1  -3   9 3424.26  261.57
   1   3  -9 3071.79  261.47
  -1  -3  -9 3203.38  262.67
  -1   3   9 3342.27  261.07
  -1  -3  -9 3291.67  262.77
   1   3  -9 3375.86  266.47
  -1  -3  -9 2943.01  261.17
  -1  -3  -9 3642.84  267.27
   1  -3   9 3319.17  261.37
  -1   3   9 3386.96  262.87
  -1   4  -9  194.58   32.10
   1  -4  -9  284.37   24.80
  -1   4  -9  267.27   23.00
  -1  -4   9  269.77   22.90
  -1  -4   9  253.17   22.10
   1   4   9  241.88   23.60
  -1  -4   9  253.27   24.20
   1  -4  -9  265.47   25.60
   1  -4  -9  290.97   22.60
  -1   4  -9  245.48   22.30
  -1  -4  -9  290.57   22.30
   1  -4   9  274.17   22.10
  -1  -4  -9  264.87   25.40
   1   4  -9  256.67   29.20
  -1   4   9  273.57   22.90
  -1  -4  -9  324.07   30.40
  -1  -4  -9  264.37   24.50
   1  -4   9  283.97   22.60
   1  -5  -9 1009.60   74.59
  -1   5  -9  813.12   73.59
  -1  -5   9  980.10   75.19
   1  -5  -9  959.70   76.29
   1  -5  -9  913.41   73.09
  -1  -5   9  800.22   72.99
  -1  -5   9  891.91   72.69
  -1   5  -9  916.81   71.99
   1   5   9 1021.30   74.89
  -1   5  -9  896.61   76.49
  -1  -5  -9  787.72   72.39
   1  -5   9  888.71   72.69
   1   5  -9  919.21   80.19
  -1   5   9  982.80   74.09
   1  -5   9  950.20   73.09
  -1  -5  -9  944.81   73.19
  -1  -5  -9  790.02   78.79
   1  -6  -9  150.88   15.00
  -1  -6   9  176.08   19.60
  -1   6  -9   80.49   26.50
  -1  -6   9  131.29   12.70
  -1  -6   9  168.48   14.10
   1   6   9  174.08   18.50
   1  -6  -9  166.28   16.00
   1  -6  -9  177.28   20.30
  -1  -6   9  157.28   14.40
  -1   6   9  165.28   17.10
  -1  -6  -9  115.69   23.20
   1  -6   9  132.29   13.90
  -1  -6  -9  150.78   15.20
   1   6  -9  168.28   28.00
   1  -6   9  167.78   15.00
  -1  -6  -9  145.19   13.70
   1  -7  -9  680.53   52.79
   1  -7  -9  660.93   52.99
   1   7   9  653.23   55.59
  -1  -7   9  657.73   52.39
   1  -7  -9  668.33   56.89
  -1  -7   9  687.23   56.19
  -1   7  -9  512.15   64.89
  -1   7   9  641.44   55.29
   1  -7   9  671.23   52.69
   1  -7   9  610.64   52.09
  -1  -7  -9  668.43   57.39
  -1  -7  -9  569.14   58.59
   1   7  -9  704.43   63.79
  -1  -7  -9  562.74   51.59
  -1  -7  -9  643.54   52.79
   1  -8  -9    4.40   12.00
  -1   8  -9   13.80   24.60
  -1  -8   9    2.00    7.10
   1  -8  -9   -0.20    7.10
   1   8   9    1.70   11.30
  -1  -8   9    4.10   12.20
   1  -8   9    0.90    7.70
  -1  -8  -9    9.80   16.20
   1   8  -9   21.80   21.10
  -1  -8  -9    6.60    7.50
  -1   8   9    2.00   10.50
  -1  -9   9  293.87   34.10
  -1  -9   9  228.68   23.30
  -1   9  -9  309.57   48.10
   1  -9  -9  238.98   24.30
   1  -9  -9  252.77   29.60
   1   9   9  250.17   29.10
   1  -9   9  215.18   23.10
  -1  -9  -9  231.88   29.90
   1   9  -9  257.97   39.00
  -1  -9  -9  231.88   24.80
   1 -10  -9    9.40   11.40
  -1 -10   9    0.70    9.40
   1 -10  -9    3.60   14.40
  -1  10  -9   30.60   30.60
  -1 -10   9   -4.70   19.60
   1 -10   9   -6.30   10.80
   1  10  -9   24.30   23.50
  -1 -10  -9   -3.20   10.90
  -1 -10  -9   11.90   15.60
   2   0   9    3.10    1.50
  -2   0  -9   -0.20    3.50
  -2   0   9   -0.50    2.90
  -2   0   9    4.60    6.80
   2   0  -9    3.00    3.50
  -2   0  -9    1.60    3.20
  -2   0   9    1.90    2.50
   2   0  -9    2.70    3.10
   2   0  -9    3.80    3.10
   2  -1  -9   16.40    2.40
  -2   1  -9    8.30    4.80
   2  -1  -9   18.80    4.90
  -2  -1   9   14.70    3.20
  -2  -1   9   13.90    4.90
  -2  -1   9    5.10    6.90
   2  -1  -9   13.00    3.50
  -2   1  -9   10.20    3.70
   2   1  -9   12.20    3.70
  -2  -1  -9   11.90    4.10
   2  -1   9    9.70    3.90
   2  -1   9   13.10    2.70
  -2   1   9   11.60    3.10
   2   1  -9   11.60    1.70
   2   1  -9   15.40    5.60
  -2   1   9    5.20    6.70
  -2  -1  -9   12.40    2.40
  -2   1   9   12.80    3.20
   2   1  -9   13.30    3.30
  -2  -1  -9   12.50    4.30
  -2  -2   9   16.10    2.90
   2  -2  -9   21.50    3.60
  -2   2  -9   23.60    4.70
  -2   2  -9   21.30    4.40
   2  -2  -9   28.20    6.20
   2  -2  -9   25.80    5.00
  -2   2  -9   26.20    8.00
  -2  -2   9   20.10    7.00
  -2  -2   9   24.60    3.50
  -2  -2  -9   27.30    5.90
   2   2  -9   28.50    3.90
  -2   2   9   25.10    4.10
  -2   2   9   26.30    3.90
   2   2  -9   23.00    4.60
  -2  -2  -9   20.00    3.80
  -2   2   9   49.20    8.50
   2   2  -9   19.50    2.90
   2   2  -9   40.00    9.00
   2  -2   9   35.30    5.00
  -2   3  -9    0.00    2.70
  -2   3  -9    1.80    3.10
   2  -3  -9    5.60    4.10
  -2   3  -9   -9.60    7.70
   2  -3  -9    4.60    3.20
  -2  -3   9    5.40    2.30
  -2  -3   9    1.00    1.60
   2  -3  -9    2.30    4.90
  -2  -3   9    1.50    5.20
   2   3  -9    1.10    2.00
  -2  -3  -9    0.80    9.50
  -2  -3  -9    3.60    4.40
  -2  -3  -9    2.40    3.80
  -2   3   9    0.20    1.40
   2   3  -9    6.20    7.90
  -2   3   9    6.40    5.20
   2  -3   9    3.60    3.30
  -2  -4   9   21.00    7.40
   2  -4  -9   14.50    4.80
   2  -4  -9   20.80    4.60
  -2   4  -9    9.60   11.40
  -2   4  -9    3.80    4.20
   2  -4  -9   20.00    6.60
  -2  -4   9    8.40    3.40
   2   4  -9   41.20   11.50
  -2  -4  -9   33.10   13.90
  -2   4   9   10.10    5.10
  -2  -4  -9   24.20    5.10
   2  -4   9   16.10    4.50
  -2  -5   9   -1.20    1.50
  -2  -5   9    0.60    7.40
  -2   5  -9   -7.50   16.90
   2  -5  -9   -1.70    4.70
  -2  -5   9   -3.70    3.80
  -2  -5   9    1.60    1.60
   2   5   9    1.80    7.10
   2  -5  -9    9.10    7.90
   2  -5  -9    5.30    4.10
  -2  -5  -9   -3.80    5.50
  -2   5   9    2.50    5.60
  -2  -5  -9   -2.20    4.70
  -2  -5  -9   -3.30   13.50
   2   5  -9   10.60   11.40
  -2  -5  -9   -3.00    5.30
   2  -5   9    0.00    4.00
   2  -5   9    1.10    4.40
  -2  -6   9    8.10    2.60
   2  -6  -9   23.70    6.50
  -2   6  -9   14.20   12.80
   2  -6  -9   29.30    9.40
  -2  -6   9   16.50    9.20
  -2   6  -9  -40.40   20.80
  -2  -6   9   15.50    5.20
   2   6   9   22.50    9.50
   2  -6   9   13.60    6.60
  -2  -6  -9   22.10   16.60
  -2  -6  -9   29.80    6.50
  -2  -6  -9   35.30    8.60
   2   6  -9   45.90   15.30
   2  -6   9    9.70    5.20
  -2  -6  -9   24.60    7.20
  -2   6   9   14.20    7.80
   2   7   9    2.70   10.00
   2  -7  -9    9.40    9.90
  -2  -7   9    6.90    6.20
  -2   7  -9   28.40   13.20
   2  -7  -9    1.60    6.20
  -2   7  -9  -46.40   21.40
   2  -7  -9    1.80    4.60
  -2  -7   9   -1.20    9.70
  -2  -7  -9    6.30    7.60
   2  -7   9    2.40    5.30
   2  -7   9    2.80    6.30
  -2  -7  -9  -32.50   17.80
  -2  -7  -9    9.00    6.40
  -2   7   9    4.90    9.10
  -2  -7  -9    3.60    8.60
   2   7  -9   22.10   16.90
  -2   8  -9   35.10   29.60
   2  -8  -9   65.59   14.10
   2  -8  -9   55.69   10.00
  -2  -8  -9   40.10   20.20
   2  -8   9   55.79   10.40
  -2   8   9   36.50   14.00
   2   8  -9   84.79   22.90
  -2  -8  -9   63.89   11.40
  -2   9  -9    4.10   27.40
  -2  -9   9    7.50   16.80
   2  -9  -9   11.70   11.70
   2   9   9   -7.70   13.20
  -2  -9   9   -4.40    8.20
   2  -9  -9    9.40    8.70
  -2  -9  -9   -7.20   10.00
  -2  -9  -9   16.20   19.40
   2   9  -9   47.90   23.40
   2  -9   9    5.40    8.80
  -2 -10   9    7.60    9.70
  -2  10  -9   12.90   33.70
  -2 -10   9    8.00   19.90
   2 -10  -9    4.50   10.00
   2 -10  -9    5.60   12.50
  -2 -10  -9    6.00   10.70
   2 -10   9    6.70   11.20
   2  10  -9   60.19   28.50
  -2 -10  -9   22.00   19.80
   3   0  -9   -0.30    0.90
  -3   0  -9    3.40    3.80
  -3   0   9    0.10    8.40
  -3   0   9    1.20    3.70
   3   0  -9   -0.60    4.60
   3   0  -9    4.20    4.10
   3   0  -9    3.90    3.60
  -3   0  -9    2.50    5.00
  -3   1  -9 3152.38  245.98
   3  -1  -9 3167.98  246.08
   3  -1  -9 3306.77  246.38
  -3  -1   9 3439.86  245.68
   3  -1  -9 3020.40  244.58
  -3   1  -9 2996.70  246.18
  -3   1   9 2673.23  248.48
   3   1  -9 3217.88  246.18
   3   1  -9 3084.09  247.38
   3  -1   9 3239.38  244.88
  -3   1   9 3136.49  245.98
   3   1  -9 2970.20  245.58
   3  -1   9 3209.68  245.78
  -3  -1  -9 2963.10  246.08
  -3  -1  -9 2934.61  245.88
   3  -2  -9   28.50    5.40
  -3  -2   9   29.80    9.00
  -3  -2   9   22.50    2.60
  -3  -2   9   21.60    4.10
   3  -2  -9   24.60    3.70
  -3   2  -9   28.40    7.50
  -3   2  -9   24.20    5.30
   3  -2  -9   30.40    6.50
  -3   2   9   37.10    8.80
   3  -2   9   22.50    4.90
   3   2  -9   23.30    8.10
  -3  -2  -9   20.10    6.00
  -3   2   9   22.50    5.00
  -3  -2  -9   15.90    5.50
   3  -3  -9  688.53   58.09
  -3   3  -9  740.93   57.79
  -3  -3   9  721.83   57.09
   3  -3  -9  720.63   57.09
  -3  -3   9  659.03   56.49
  -3  -3   9  739.93   60.29
  -3   3  -9  635.24   59.89
   3  -3  -9  712.13   59.09
   3   3  -9  718.53   61.49
  -3  -3  -9  692.93   57.89
  -3   3   9  783.12   60.09
   3  -3   9  703.93   57.49
  -3   3   9  720.33   56.89
  -3  -3  -9  742.83   58.69
  -3  -4   9  128.29   12.70
  -3  -4   9  142.49   16.80
  -3   4  -9  146.39   13.70
   3  -4  -9  157.78   16.40
  -3  -4   9  149.59   12.60
   3  -4  -9  152.98   13.40
  -3   4  -9   84.79   19.30
   3  -4  -9  150.68   14.50
   3  -4   9  142.49   13.60
   3   4  -9  171.48   20.30
  -3  -4  -9  157.18   15.80
  -3  -4  -9  173.88   24.50
  -3   4   9  151.58   16.50
  -3  -4  -9  140.89   14.40
  -3  -5   9 1814.42  136.99
  -3   5  -9 1712.23  143.69
   3  -5  -9 1807.92  137.69
  -3  -5   9 1762.12  140.29
   3  -5  -9 1774.12  139.99
  -3   5  -9 1809.52  137.79
   3  -5  -9 1801.02  138.19
  -3  -5   9 1733.73  137.09
   3  -5   9 1633.14  138.09
  -3   5   9 1647.04  139.99
  -3  -5  -9 1606.14  147.19
  -3  -5  -9 1513.65  137.89
   3  -5   9 1768.92  137.79
  -3  -5  -9 1756.42  138.99
   3   5  -9 1755.92  143.59
  -3  -6   9    8.20    5.00
  -3  -6   9    7.40    9.10
   3  -6  -9   11.40    6.40
   3   6   9   -0.70    9.80
   3  -6  -9    5.30    4.90
  -3  -6   9    4.90    3.80
   3  -6  -9   15.90    9.20
  -3  -6  -9    3.50    6.60
  -3  -6  -9    6.00    7.10
  -3   6   9    6.50    8.60
   3   6  -9   12.90   13.90
  -3  -6  -9   -2.50   19.00
   3  -6   9    5.20    5.60
   3  -6   9    8.40    6.80
  -3  -6  -9   11.30    7.10
  -3  -7   9  264.87   22.60
   3  -7  -9  246.38   23.30
   3   7   9  278.67   29.00
   3  -7  -9  252.47   26.60
  -3  -7   9  270.07   28.40
  -3   7  -9  210.88   31.30
   3   7  -9  247.58   35.70
   3  -7   9  248.48   23.00
  -3  -7  -9  241.18   23.70
  -3   7   9  226.08   26.40
  -3  -7  -9  234.08   23.10
  -3  -7  -9  275.37   26.00
  -3  -7  -9  315.97   40.50
  -3  -8   9   41.00    8.70
  -3   8  -9  -43.30   25.10
   3  -8  -9   27.20    8.80
  -3  -8   9   26.20   14.40
  -3   8  -9   53.79   17.50
   3   8   9   17.10   14.30
   3  -8  -9   43.00   13.50
   3   8  -9   30.40   20.10
  -3  -8  -9   25.60   12.20
  -3  -8  -9   36.40    9.90
   3  -8   9   36.70   10.30
   3  -8   9   26.40    9.50
  -3  -8  -9  -33.60   23.60
   3  -9  -9  150.98   21.90
  -3  -9   9  156.78   25.80
  -3  -9   9  155.08   18.00
  -3   9  -9  112.99   41.90
   3   9   9  139.29   26.90
   3  -9  -9  183.48   20.20
   3  -9   9  180.68   20.10
   3   9  -9  194.58   35.30
  -3  -9  -9  165.58   19.30
  -3  -9  -9   96.29   33.00
  -3 -10   9    2.60   21.00
  -3  10  -9   16.30   34.00
   3 -10  -9   -1.60   14.70
  -3 -10   9    2.80   11.10
   3 -10  -9   17.30   11.90
   3 -10   9    4.00   11.90
  -3 -10  -9   -5.80   21.90
   3  10  -9   18.50   24.80
  -3 -10  -9   -6.80   10.60
  -4   0  -9   14.20    5.20
  -4   0   9    6.60   10.00
  -4   1  -9    4.50    5.80
  -4   1  -9    0.80    4.30
   4  -1  -9    3.40    4.90
  -4  -1   9   -8.60    8.50
   4  -1  -9    1.20    1.90
   4   1  -9    4.20    4.50
   4  -1   9   -1.30    5.40
  -4   1   9   -3.40    8.30
  -4  -1  -9    4.50    3.90
  -4  -1  -9    5.70    6.10
   4   1  -9    3.60    6.20
   4  -1   9   -8.70    4.00
  -4   2  -9    9.30    6.20
   4  -2  -9   15.10    6.00
  -4   2  -9    2.30    4.20
  -4  -2   9    9.90   10.10
   4  -2  -9    7.60    3.00
  -4  -2  -9   17.60    5.90
  -4  -2  -9    7.90    4.40
   4  -2   9    6.60    3.70
  -4   2   9   22.30    8.50
  -4  -2  -9   24.10    6.30
   4  -2   9   17.90    5.40
  -4   3  -9    0.10    6.90
   4  -3  -9    3.10    5.90
  -4  -3   9    3.70    8.20
  -4   3  -9    0.50    3.70
   4  -3  -9    1.70    3.30
  -4  -3   9    0.80    1.70
  -4  -3  -9    3.80    5.70
  -4   3   9   -0.20    3.80
   4   3  -9    8.70    8.90
  -4  -3  -9   -1.20    6.20
   4  -3   9    2.60    5.10
  -4  -3  -9   -1.90    4.10
  -4   3   9   10.30    8.20
  -4  -4   9   10.00    4.50
   4  -4  -9   15.80    7.50
  -4  -4   9   10.10    3.30
  -4  -4   9   18.50   10.20
   4  -4  -9   16.30    4.60
  -4   4  -9    3.80   10.60
  -4   4   9   10.80    4.30
   4  -4   9   31.00    6.40
  -4   4   9   34.60    8.80
   4  -5  -9   10.50    5.70
  -4   5  -9   15.00    4.80
  -4  -5   9   17.30    4.40
  -4   5  -9   -9.20   11.80
   4  -5  -9   21.20    9.70
  -4  -5   9   11.80    9.70
   4   5  -9    9.70   12.30
  -4  -5  -9   13.10    7.00
   4  -5   9   10.20    6.70
  -4  -5  -9   26.20   19.00
  -4  -5  -9   21.40    8.30
  -4  -6   9   12.20    8.20
  -4  -6   9   18.40    5.60
  -4   6  -9   16.20   17.80
   4  -6  -9   27.80   10.30
  -4  -6   9   15.10   12.30
   4  -6  -9   26.40    7.30
  -4  -6  -9   39.80    9.60
   4  -6   9   35.40    8.50
  -4   6   9   21.00   12.20
   4  -6   9   15.40    7.60
  -4  -6  -9   34.20    8.90
  -4  -6  -9   33.50    7.90
   4   6  -9   47.30   16.70
  -4  -6  -9   35.30   25.10
   4  -7  -9   13.50   10.40
   4  -7  -9   13.50    7.50
  -4  -7   9    9.90   13.70
  -4  -7   9    5.50    6.10
  -4  -7  -9   25.90   26.60
  -4   7   9    8.00   11.00
   4  -7   9   15.40    7.90
  -4  -7  -9   10.90    9.70
  -4  -7  -9   21.20    9.50
   4   7  -9   20.70   19.40
   4  -7   9    2.40    8.00
  -4  -7  -9    5.80    8.90
  -4   8  -9  -49.50   27.30
  -4   8  -9   11.30   17.60
  -4  -8   9   23.90    7.90
  -4  -8   9   33.90   15.50
   4   8   9   16.00   15.70
   4  -8  -9   29.10   12.40
   4  -8  -9   34.60    9.90
   4   8  -9   43.10   22.20
  -4  -8  -9   26.40   31.70
   4  -8   9    8.10    8.60
  -4  -8  -9   37.60   11.20
  -4  -8  -9   30.80   12.00
  -4  -8  -9   16.40   10.40
   4  -8   9   20.30    9.00
   4   9   9    8.80   16.40
  -4  -9   9    0.20    8.40
   4  -9  -9    8.90   10.80
   4  -9  -9   13.10   12.40
  -4   9  -9  -33.50   35.60
  -4  -9   9   -6.90   15.80
   4   9  -9   16.50   23.70
  -4  -9  -9  -70.89   26.10
   4  -9   9   10.20   11.20
  -4  -9  -9    9.90   11.30
  -5   0  -9    2.10    5.70
  -5   0  -9    3.20    7.20
  -5   0   9  -19.80    9.40
   5   0  -9    5.10    6.40
  -5   1  -9  760.72   59.19
   5  -1  -9  745.83   58.99
   5  -1  -9  727.63   56.39
  -5  -1   9  708.63   64.79
  -5   1  -9  756.72   58.59
  -5   1   9  616.54   62.59
  -5  -1  -9  724.93   58.89
   5  -1   9  739.23   58.79
   5  -1   9  592.24   57.09
  -5   1   9  722.63   56.19
  -5  -1  -9  679.03   58.49
  -5  -1  -9  696.23   56.09
   5   1  -9  735.63   58.59
  -5   2  -9   -7.30    7.20
  -5   2  -9    1.60    5.10
   5  -2  -9   11.50    6.90
   5  -2  -9   -0.80    2.90
  -5  -2   9  -13.70    9.80
  -5   2   9    2.40    5.60
  -5  -2  -9   17.20    5.90
  -5   2   9    8.00    9.30
   5   2  -9    0.10    8.20
  -5  -2  -9    1.60    7.30
   5  -2   9   -2.40    5.00
  -5  -2  -9    1.10    6.20
   5  -2   9  -11.40    5.70
   5  -3  -9 1580.04  131.39
  -5   3  -9 1689.33  130.19
  -5   3  -9 1536.05  131.09
  -5  -3   9 1521.05  134.29
   5  -3  -9 1585.74  128.89
  -5   3   9 1725.43  129.79
  -5  -3  -9 1513.75  130.69
   5   3  -9 1618.84  134.49
   5  -3   9 1616.04  129.69
  -5  -3  -9 1621.44  130.99
  -5   3   9 1662.83  132.79
  -5  -3  -9 1795.72  130.89
  -5  -4   9   47.10   14.40
  -5   4  -9   62.99   14.10
   5  -4  -9   55.49   11.40
  -5   4  -9   40.10    7.50
   5  -4  -9   55.99    7.50
  -5  -4   9   49.10    5.60
  -5  -4  -9   54.59   10.20
  -5   4   9   48.40   12.10
   5   4  -9   57.99   15.40
  -5   4   9   57.09    8.30
  -5  -4  -9   56.89   11.10
  -5  -4  -9   57.49   10.50
   5  -4   9   39.90    8.40
  -5   5  -9  122.39   13.40
   5  -5  -9  125.39   16.50
  -5   5  -9   93.09   21.10
  -5  -5   9  114.39   19.40
  -5  -5   9  130.19   11.50
   5  -5  -9  111.39   13.00
   5   5  -9  137.59   24.00
   5  -5   9  115.69   13.50
  -5  -5  -9  139.19   16.20
  -5  -5  -9  126.59   15.90
  -5  -5  -9  125.39   17.10
   5  -6  -9   20.10   10.80
  -5  -6   9   25.60    5.90
   5  -6  -9   27.60    7.50
  -5   6  -9   19.30   16.10
  -5  -6   9   11.00   14.00
  -5  -6  -9   20.30   10.20
  -5  -6  -9   17.10   10.80
  -5  -6  -9   16.50   10.00
  -5  -6  -9   52.19   27.30
   5   6  -9   31.60   17.40
  -5  -6  -9    6.00    7.40
   5  -6   9   17.30    7.90
   5  -7  -9  428.26   38.20
   5  -7  -9  466.05   42.50
  -5   7  -9  405.06   50.99
  -5  -7   9  446.86   44.50
   5   7  -9  438.66   49.40
  -5  -7  -9  401.26   54.29
   5  -7   9  423.96   39.70
  -5  -7  -9  435.76   38.80
  -5  -7  -9  432.26   42.80
   5  -7   9  437.76   38.40
  -5  -7  -9  524.55   40.80
  -5  -7  -9  451.35   41.10
   5  -8  -9    2.40    9.00
  -5   8  -9  -53.29   21.30
   5  -8  -9    6.00   12.50
  -5   8  -9  -38.90   32.70
  -5  -8   9  -10.10   16.90
  -5  -8  -9    4.90   13.90
  -5  -8  -9    0.90    8.70
  -5  -8  -9   37.30   32.70
  -5  -8  -9   -0.50   10.70
   5   8  -9   23.70   22.60
  -5  -8  -9   -1.50   11.20
   5  -8   9    2.50   10.10
   5  -8   9   -1.80    9.30
   5  -9  -9  140.39   17.70
   5  -9  -9  112.69   22.00
  -5  -9   9  114.69   27.90
  -5   9  -9  -15.10   39.10
   5   9  -9  177.58   35.50
  -5  -9  -9  121.99   18.10
  -5  -9  -9   96.59   22.30
  -5  -9  -9  111.89   38.40
   5  -9   9  103.49   17.70
  -6   0  -9   36.90    8.60
  -6   0   9   -5.60   13.30
  -6   1  -9   -2.30    6.80
  -6   1  -9    4.10    8.10
  -6  -1   9   -4.40   15.50
   6  -1  -9    5.00    7.50
   6  -1  -9   -3.50    4.20
  -6  -1  -9    4.20    7.60
  -6  -1  -9    4.00    2.60
  -6   1   9    7.20    7.80
  -6  -1  -9    4.80    9.00
  -6   1   9   -0.10   12.80
   6  -1   9    3.30    3.90
  -6   1   9    4.90    2.70
  -6   2  -9   19.40    8.80
  -6  -2   9   -2.00   12.70
   6  -2  -9   10.30    4.50
  -6   2  -9    6.30    6.90
   6  -2  -9   20.70    8.80
   6  -2   9   16.00    7.00
  -6  -2  -9   17.50    8.40
  -6  -2  -9   35.20   10.20
  -6   2   9   26.30   11.70
  -6  -2  -9   14.90    5.80
  -6   2   9   15.50    7.50
   6  -3  -9   16.00    9.10
  -6  -3   9    1.60   14.20
   6  -3  -9   11.90    4.80
  -6   3  -9    6.90    6.40
  -6   3  -9   12.60    9.90
   6   3  -9   21.70   12.70
  -6  -3  -9   17.40    8.90
  -6  -3  -9   20.90   10.20
  -6  -3  -9   14.10    8.70
  -6   3   9   24.60   11.80
  -6   3   9   13.70    7.30
   6  -3   9    7.20    6.40
   6  -4  -9   25.60   10.10
  -6   4  -9   18.30   10.20
  -6   4  -9   11.40    7.20
  -6  -4   9   14.00   14.90
   6  -4  -9   12.00    5.40
  -6  -4  -9    4.70    8.80
   6  -4   9   27.70    8.30
   6   4  -9   19.90   14.10
  -6  -4  -9   33.40   10.00
  -6   4   9   14.90    7.30
  -6   4   9   22.70   11.00
  -6  -4  -9   27.30    9.40
   6  -5  -9    0.70    9.80
  -6   5  -9    5.30   13.80
   6  -5  -9    0.20    5.70
  -6  -5   9    3.40   13.20
  -6   5  -9   -5.30    5.90
  -6  -5  -9   -1.20    8.40
   6   5  -9    4.10   14.50
   6  -5   9    5.70    8.20
  -6  -5  -9   -3.00    9.20
  -6  -5  -9    0.10   10.20
  -6   6  -9   26.30   16.80
  -6  -6   9   28.90   15.60
   6  -6  -9   33.70    8.30
   6  -6  -9   38.90   13.90
   6   6  -9   57.79   21.90
   6  -6   9   32.20    9.30
  -6  -6  -9   33.60   12.80
  -6  -6  -9   68.59   13.80
  -6  -6  -9   36.70   11.40
   6  -7  -9    4.40   12.20
   6  -7  -9   -0.10    7.50
  -6   7  -9   23.20   21.90
  -6  -7   9   13.20   17.80
   6  -7   9   10.20    9.00
   6   7  -9   19.40   21.60
  -6  -7  -9    1.10   11.90
  -6  -7  -9    6.20    9.50
  -6  -7  -9   10.30   10.20
  -6  -7  -9   61.79   28.10
  -6  -7  -9   -5.60   12.20
   6  -8  -9   18.00   10.00
   6  -8  -9   18.70   13.80
  -6  -8   9   26.60   20.70
  -6  -8  -9   16.30   14.30
  -6  -8  -9    7.50   15.00
  -6  -8  -9    5.50   11.10
   6  -8   9   29.00   11.80
   6   8  -9   26.00   23.50
  -6  -8  -9   71.89   32.70
  -6  -8  -9   16.30   11.50
  -7   0   9  -26.60   13.70
  -7   0  -9    7.10    7.10
   7   0  -9    6.90    9.50
  -7   0   9    6.10   10.10
  -7   0  -9    3.10    9.30
   7  -1  -9  387.66   37.20
  -7  -1   9  342.07   49.40
  -7   1  -9  458.35   40.00
   7  -1  -9  461.65   40.10
  -7  -1  -9  474.85   40.00
  -7  -1  -9  485.45   40.50
  -7   1   9  443.16   46.00
  -7   1   9  464.75   39.80
   7  -2  -9   84.89   10.20
   7  -2  -9   73.59   13.90
  -7   2  -9   64.89   12.50
  -7   2  -9   82.59   15.50
  -7  -2   9   53.09   21.70
   7  -2   9   67.79   13.20
  -7   2   9   76.49   18.20
  -7  -2  -9   78.29   14.70
  -7  -2  -9   68.39   13.40
  -7   2   9   69.79   13.10
  -7   3  -9  154.68   19.40
  -7   3  -9  173.68   19.80
   7  -3  -9  183.68   21.70
   7  -3  -9  157.38   15.50
  -7  -3  -9  155.48   20.00
  -7   3   9  190.08   24.50
  -7  -3  -9  184.28   20.90
   7  -3   9  142.59   17.80
  -7   3   9  150.48   18.50
  -7   4  -9   19.30   13.00
  -7   4  -9   12.50    7.90
   7  -4  -9   20.60   11.70
  -7  -4   9    7.70   17.40
   7  -4  -9   18.50    6.70
  -7  -4  -9   17.10   10.60
  -7   4   9   20.80   12.60
  -7  -4  -9   13.10   12.20
   7  -4   9   18.50    9.00
  -7   4   9   21.80    9.20
  -7  -5   9  360.76   45.60
  -7   5  -9  389.36   41.10
  -7   5  -9  397.66   35.80
   7  -5  -9  397.76   38.40
   7  -5  -9  379.86   34.10
   7   5  -9  427.86   47.80
  -7  -5  -9  386.96   36.90
  -7  -5  -9  422.06   38.70
   7  -5   9  426.66   35.80
  -7  -6   9   47.20   19.70
  -7   6  -9   48.00   19.60
   7  -6  -9   53.89   15.20
   7  -6  -9   46.00   10.00
  -7  -6  -9   35.70   14.10
   7  -6   9   53.69   12.60
   7   6  -9   67.59   25.00
  -7  -6  -9   33.60   13.10
  -7  -7   9   57.69   21.90
   7  -7  -9   67.39   17.70
   7  -7  -9   68.89   12.70
  -7   7  -9  101.09   23.60
  -7  -7  -9   64.69   16.90
  -7  -7  -9  121.29   31.00
   7  -7   9   79.59   15.20
   7   7  -9   98.99   29.90
  -7  -7  -9   61.59   13.40
  -7  -7  -9   74.19   18.60
  -7  -8   9    9.60   20.00
   7  -8  -9    2.40   14.60
   7  -8  -9   -0.80   10.10
   7  -8   9   19.70   12.20
  -7  -8  -9   82.69   29.20
   7   8  -9   30.20   24.80
  -7  -8  -9   -4.00   11.20
  -7  -8  -9  -10.50   13.40
  -8   0  -9    2.60    8.10
  -8   0   9    8.80   11.90
  -8   0   9  -19.10   18.20
  -8   0  -9   10.80   12.50
  -8  -1   9    3.40   12.90
  -8  -1   9  -40.40   17.00
  -8   1  -9    9.70   11.40
   8  -1  -9    5.90   10.40
  -8  -1  -9    3.70   10.60
  -8   1   9    1.50   16.60
  -8   1   9   -3.30   11.30
  -8  -1  -9   14.80   11.60
  -8   2  -9   28.20   11.50
   8  -2  -9   49.00   14.00
  -8   2  -9   51.29   14.50
  -8  -2   9   13.10   21.60
  -8  -2  -9   24.00   10.20
  -8   2   9   58.59   17.80
  -8  -2  -9   73.19   15.10
  -8   2   9   30.40   12.10
   8  -2   9   32.80   12.20
  -8   3  -9  -12.80   10.20
  -8   3  -9    5.40   11.40
   8  -3  -9   -6.60   10.80
  -8  -3   9    0.50   21.20
  -8   3   9   -2.20   10.30
  -8   3   9   15.50   15.20
   8  -3   9   -5.80   10.00
  -8  -3  -9   -5.20   10.90
  -8  -3  -9   -6.30   11.00
  -8   4  -9   19.90   13.60
  -8  -4   9    6.50   16.30
   8  -4  -9   19.40   12.30
  -8   4  -9   13.60   10.70
  -8   4   9   36.30   15.90
   8  -4   9   11.10    9.90
  -8  -4  -9   27.10   12.70
  -8  -4  -9   32.30   12.90
   8  -5  -9   11.50   13.00
   8  -5  -9   12.00    8.10
  -8   5  -9   -1.90    8.20
  -8   5  -9   14.20   15.80
  -8  -5   9    6.60   19.80
  -8  -5  -9   -4.50   11.50
   8  -5   9    5.70   10.10
  -8  -5  -9   -5.10   13.20
   8  -6  -9   15.50    9.00
   8  -6  -9   10.60   13.70
  -8  -6   9   16.60   22.80
  -8   6  -9   30.10   19.50
  -8  -6  -9   11.90   12.90
   8  -6   9   10.30    9.70
  -8  -6  -9    6.60   12.90
   8  -7  -9    5.30   15.10
   8  -7  -9    8.20    9.70
  -8  -7   9   12.50   24.20
   8  -7   9   -0.60   11.60
  -8  -7  -9   45.60   25.10
  -8  -7  -9    1.70   14.90
  -8  -7  -9    0.10   10.70
   8   7  -9   12.20   23.60
  -9   0   9    2.90   20.10
  -9   0  -9    3.00   14.30
  -9   0   9   -2.60   13.30
  -9   0  -9  -12.30   11.50
  -9   1  -9  152.18   21.30
  -9  -1   9   64.09   31.00
  -9  -1   9  134.69   21.80
  -9   1  -9  158.18   24.20
  -9  -1  -9  143.69   21.80
  -9   1   9  199.08   24.80
  -9  -1  -9  154.18   22.40
  -9   1   9  181.38   30.00
  -9   2  -9   26.20   16.30
  -9   2  -9   -5.70   11.10
  -9  -2   9  -64.59   22.50
   9  -2  -9   17.60   14.20
  -9  -2   9    3.30   14.10
  -9  -2  -9   20.80   13.50
  -9   2   9   14.70   13.20
  -9   2   9   12.50   18.30
  -9  -2  -9    4.00   13.40
  -9   3  -9  115.79   18.70
  -9  -3   9  113.09   21.90
   9  -3  -9  116.39   20.50
  -9  -3   9   62.69   31.90
  -9   3  -9  131.99   22.90
  -9  -3  -9  119.09   22.20
   9  -3   9  103.09   19.00
  -9   3   9  150.18   25.80
  -9  -3  -9  103.19   19.80
  -9   3   9  137.49   20.60
  -9  -4   9   61.59   22.90
  -9  -4   9   63.89   28.30
  -9   4  -9   27.20   12.70
   9  -4  -9   57.19   16.90
  -9   4  -9   68.69   19.30
   9  -4   9   57.29   14.40
  -9   4   9   63.09   17.80
  -9  -4  -9   57.99   17.10
  -9  -4  -9   71.79   17.20
  -9  -5   9   47.20   21.90
   9  -5  -9   81.29   19.30
  -9   5  -9  107.59   23.30
  -9  -5  -9   66.29   19.80
   9  -5   9  100.99   16.10
  -9  -5  -9   84.59   18.80
 -10   0   9   37.10   22.90
 -10   0  -9   19.50   14.90
 -10   0   9   32.80   17.30
 -10   0  -9   47.60   16.30
 -10  -1   9   -5.60   23.90
 -10   1  -9  -11.50   13.10
 -10  -1   9   10.10   18.20
 -10   1  -9   20.90   17.30
 -10   1   9   -7.00   15.50
 -10   1   9   16.20   20.50
 -10  -1  -9  -12.20   16.60
 -10  -1  -9   -9.80   13.40
 -10   2  -9   -8.70   12.70
 -10   2  -9    4.20   14.60
 -10  -2   9   -0.20   17.10
 -10   2   9   -2.40   14.60
 -10  -2  -9    6.90   15.20
 -10   2   9    8.70   18.10
 -10  -2  -9    1.60   14.20
  10  -3  -9   11.20   15.50
 -10  -3   9    6.10   19.80
 -10  -3   9  -61.69   21.90
 -10   3  -9  -24.10   12.20
 -10   3  -9   -2.70   14.30
 -10  -3  -9  -15.50   17.30
 -10  -3  -9  -20.60   13.40
 -10   3   9    8.30   19.10
  10  -4  -9   17.50   17.80
  10  -4   9   51.59   15.80
   0   0 -10 8321.27  700.43
   0   0  10 8263.57  700.03
   0   0 -10 8809.02  700.53
   0   0 -10 9999.00  701.03
   0   0 -10 9062.69  701.33
   0   0  10 8966.30  700.83
   0   0 -10 8636.74  699.13
   0   1 -10    3.60    4.50
   0   1 -10   -6.30    4.50
   0   1  10    1.50    4.20
   0  -1 -10   -5.90    4.20
   0   1  10   -6.00    3.60
   0   1  10   -5.50    5.50
   0  -1  10    4.40    3.50
   0   1 -10   -9.20    6.30
   0   1 -10    0.10    3.90
   0   1 -10   -0.20    7.60
   0  -1  10   -0.30    3.80
   0  -1  10   -3.90    2.50
   0  -1 -10    2.60    6.00
   0   1 -10   -1.50    2.60
   0  -1 -10    0.70    2.90
   0  -1 -10   -4.90    5.40
   0  -2 -10 1397.16  105.79
   0  -2  10 1339.97  101.49
   0   2 -10 1105.19  101.89
   0  -2 -10 1162.08  104.39
   0  -2 -10 1407.76  101.39
   0  -2  10 1340.57  103.49
   0   2  10 1213.68  101.59
   0  -2  10 1399.26  102.69
   0   2 -10 1127.99  106.89
   0  -3 -10   -8.00    7.20
   0  -3  10   -0.70    4.00
   0  -3  10    7.20    4.60
   0   3 -10   -7.40    6.60
   0   3  10    1.20    2.00
   0   3 -10    3.50    3.30
   0  -3 -10   -3.60    3.70
   0  -3  10    0.40    2.90
   0   3 -10  -11.10    9.60
   0  -3 -10   -3.40    6.40
   0  -3 -10   -0.10    3.30
   0  -4 -10 1752.22  140.99
   0   4  10 1638.94  141.69
   0  -4 -10 1878.41  144.29
   0  -4  10 1785.92  141.29
   0   4 -10 1704.93  141.29
   0   4 -10 1822.42  144.19
   0  -4 -10 1937.41  145.19
   0  -4 -10 1802.42  141.59
   0  -4  10 1767.32  142.79
   0   5 -10  -17.70   11.90
   0  -5  10    2.10    3.70
   0  -5 -10    1.80    4.80
   0  -5  10   -2.40    6.00
   0  -5 -10  -19.90    9.60
   0  -5 -10   -5.60    8.50
   0  -5 -10    2.70    2.40
   0   5  10   -5.60    5.10
   0  -5  10   -2.80    3.50
   0  -6 -10  946.51   90.09
   0  -6  10 1208.98   87.09
   0  -6 -10 1016.50   91.89
   0   6  10 1156.98   88.89
   0   6 -10  997.10   97.49
   0  -6 -10 1103.39   87.29
   0  -6  10 1105.79   89.39
   0  -7 -10  -20.10    8.00
   0  -7  10   -2.40    9.70
   0   7  10   -3.00    8.50
   0  -7  10    1.90    5.60
   0   7 -10    5.80   19.20
   0  -7 -10    2.80    6.30
   0  -7 -10   -3.80   11.30
   0   8 -10  137.09   32.60
   0  -8 -10  108.69   14.60
   0  -8  10   89.99   18.00
   0  -8 -10  126.39   20.80
   0  -8  10   99.69   13.10
   0   8  10   94.99   17.50
   0  -9 -10    7.70   14.10
   0  -9  10   -5.30    8.60
   0  -9 -10   -2.40    9.30
   0   9 -10   22.90   23.50
   0  -9  10   -6.60   14.30
   0 -10 -10  250.87   27.90
   0 -10  10  301.47   40.50
   0 -10 -10  287.57   34.50
   0 -10  10  278.77   27.30
   0  10 -10  294.77   47.20
   1   0  10   -0.10    1.40
   1   0 -10    5.20    3.90
   1   0 -10    7.40    4.50
  -1   0  10    4.90    6.00
   1   0 -10    7.60    4.50
  -1   0  10    4.70    3.70
  -1   0 -10   -1.50    4.30
   1   0  10    0.40    4.60
   1   0 -10    5.00    3.90
  -1   0 -10    0.40    3.70
   1   0 -10    9.70    5.90
  -1   0  10    6.10    3.10
  -1   0 -10    1.10    4.00
  -1  -1  10    0.20    5.30
   1  -1 -10    5.40    5.00
  -1  -1  10    3.30    3.20
  -1  -1  10    3.10    4.30
   1  -1 -10    7.80    3.80
   1   1  10   10.40    3.10
  -1   1 -10    1.30    5.60
   1  -1 -10    6.20    2.10
  -1   1 -10    6.80    3.00
   1   1  10    1.60    3.50
   1  -1 -10    9.00    5.00
  -1   1 -10    4.60    4.20
   1  -1  10    4.40    3.30
   1  -1  10    4.00    3.90
   1   1 -10    6.10    6.00
  -1  -1 -10    9.70    6.70
   1   1 -10    3.40    2.40
   1   1 -10    7.70    2.80
  -1  -1 -10    3.50    3.80
   1   1 -10    6.30    3.70
  -1  -1 -10    3.70    4.20
  -1   1  10    7.60    3.10
  -1   1  10    2.90    5.80
   1  -1  10    4.00    3.20
  -1  -1 -10    4.90    3.10
   1  -2 -10   20.70    7.00
  -1  -2  10   19.40    4.40
  -1   2 -10   25.30   10.30
  -1  -2  10   30.10    3.60
   1   2  10   27.50    4.40
  -1  -2  10   22.00    6.10
   1  -2 -10   16.40    6.50
  -1   2  10   28.00    5.20
  -1  -2 -10   26.90    4.60
   1   2 -10   19.60    4.20
  -1  -2 -10   16.30    4.50
  -1  -2 -10   27.70    4.60
   1   2 -10   23.60   10.10
   1   2 -10   25.20    3.20
   1  -2  10   16.70    3.80
  -1  -2 -10   10.60    8.70
  -1  -2 -10   13.70    5.70
   1  -2  10   21.00    5.10
   1   2 -10   20.70    2.70
   1  -2  10   19.30    4.50
  -1   2  10   19.00    5.80
  -1  -3  10    5.90    2.80
   1  -3 -10   13.10    7.10
  -1   3 -10    8.40    5.40
   1  -3 -10    5.90    6.60
   1   3  10   11.00    3.40
  -1  -3  10    9.10    3.50
   1  -3 -10   13.80    3.60
  -1  -3  10   12.40    5.50
  -1   3 -10    6.10    2.80
  -1   3 -10   14.60   10.20
   1  -3  10    6.10    3.60
  -1   3  10    5.90    1.80
  -1   3  10   18.80    5.50
   1  -3  10   12.70    4.80
   1  -3  10   15.30    4.00
  -1  -3 -10   19.60   10.60
  -1   3  10    9.50    1.90
   1   3 -10   17.40   10.30
  -1  -3 -10    9.20    4.70
  -1   4 -10   -0.50   14.40
  -1  -4  10    2.20    3.50
   1  -4 -10    5.80    4.10
  -1   4 -10    4.20    3.00
  -1  -4  10    1.10    3.10
   1  -4 -10    0.20    5.60
  -1  -4  10    5.00    5.60
  -1   4 -10   -6.90    4.10
   1  -4 -10   -0.40    7.10
   1   4  10    0.30    4.50
  -1  -4 -10    1.00    5.60
   1   4 -10   -0.40    3.10
  -1  -4 -10   -0.10    5.90
  -1   4  10    0.60    3.40
   1   4 -10    3.50   10.80
  -1  -4 -10    5.00    3.30
  -1  -4 -10   -0.80   10.10
   1  -4  10    2.50    3.60
   1  -4  10    0.70    2.80
   1  -5 -10   30.40    9.80
  -1  -5  10   30.30    8.50
   1  -5 -10   25.20    7.30
   1  -5 -10   23.50    5.30
  -1   5 -10    9.80    5.60
  -1  -5  10   20.10    4.90
   1   5  10   16.90    7.00
  -1   5 -10   -7.50   15.00
  -1   5 -10   17.70    3.10
  -1   5 -10   19.30   11.70
  -1  -5 -10   38.70    6.50
   1  -5  10   22.90    5.70
  -1   5  10   22.40    6.20
   1   5 -10   31.90   14.00
  -1  -5 -10   31.60    4.80
  -1  -5 -10   29.30   13.80
  -1  -5 -10   15.10    7.70
   1  -6 -10   10.40    9.40
   1   6  10    4.30    7.00
  -1   6 -10  -33.80   15.20
  -1  -6  10   -0.60    4.70
  -1   6 -10   26.40   11.80
   1  -6 -10   11.00    6.50
  -1  -6  10    0.00    8.80
   1  -6 -10    6.90    5.50
  -1  -6 -10    9.80    5.70
  -1  -6 -10  -16.00   12.10
   1   6 -10   14.50   15.50
   1  -6  10    9.70    5.80
  -1  -6 -10   -5.00    7.50
   1  -6  10   -1.40    3.70
  -1  -6 -10    8.50    4.10
  -1   6  10    1.40    6.50
   1  -7 -10   54.29   13.20
  -1   7 -10   41.70   23.10
   1  -7 -10   40.90    8.00
   1  -7 -10   39.40    7.50
   1   7  10   37.60   11.30
  -1  -7  10   37.20    7.80
  -1   7  10   44.00   10.30
   1  -7  10   24.40    7.40
   1   7 -10   65.09   21.10
  -1  -7 -10   42.10    8.80
  -1  -7 -10   24.10   17.50
  -1  -7 -10   60.49   13.70
   1  -7  10   26.20    6.20
  -1   8 -10    5.60   23.60
   1  -8 -10   -0.30    7.30
  -1  -8  10   -7.80    7.00
   1  -8 -10   13.00   11.80
   1   8  10    1.10   10.50
  -1  -8  10   -0.30   13.30
  -1  -8 -10   -4.00    8.10
  -1  -8 -10    1.30   15.10
   1   8 -10   23.00   20.60
   1  -8  10   -8.80    7.50
  -1  -9  10   32.60   16.30
  -1  -9  10   28.10    9.60
  -1   9 -10   42.70   28.10
   1  -9 -10   30.10   10.90
   1  -9 -10   37.00   14.50
   1   9 -10   55.89   26.50
   1  -9  10   20.70    9.10
  -1  -9 -10   36.80   11.90
  -1  -9 -10   42.90   19.20
  -1 -10  10  -13.70   16.60
  -1 -10  10    2.20    9.80
  -1  10 -10    4.90   27.60
   1 -10 -10   -4.80   10.70
   1 -10 -10   10.00   16.10
   1  10 -10   64.59   29.90
  -1 -10 -10    9.60   12.00
   1 -10  10   -1.10   10.40
  -1 -10 -10   11.70   18.60
   2   0  10 1197.68   98.49
   2   0 -10 1196.98   99.69
  -2   0 -10 1252.97   98.19
  -2   0  10 1326.67   99.19
  -2   0 -10 1159.38   99.29
  -2   0 -10 1257.47   99.49
   2   0 -10 1244.28   99.49
  -2   0  10 1415.16  103.39
   2   0 -10 1203.78   99.09
  -2   0  10 1190.68   99.29
   2  -1 -10  137.29   12.50
   2  -1 -10  120.19   10.40
   2  -1 -10  135.09   12.40
  -2   1 -10  121.99   12.90
  -2  -1  10   75.59   14.60
  -2  -1  10  121.99   11.00
  -2   1 -10  135.39   12.20
  -2  -1 -10  111.19   10.80
   2  -1  10  105.79   11.40
  -2   1  10  131.99   11.30
   2   1 -10  124.39   11.20
  -2   1  10  124.89   11.10
  -2  -1 -10  138.29   12.20
  -2  -1 -10  116.79   12.30
   2   1 -10  129.19   13.90
   2   1 -10  120.29   10.10
  -2   1  10   96.79   16.00
   2  -1  10  124.89   10.90
   2   1 -10  127.19   12.00
  -2   2 -10 3405.96  299.27
  -2  -2  10 3932.31  299.27
   2  -2 -10 3972.30  298.17
  -2  -2  10 3549.04  296.47
  -2   2 -10 3921.21  297.47
  -2   2 -10 3796.42  297.67
   2  -2 -10 3761.42  298.57
  -2  -2  10 3910.01  296.77
   2  -2 -10 3755.22  296.67
  -2   2  10 4228.38  299.97
   2  -2  10 3866.81  297.17
  -2   2  10 3735.13  296.67
   2  -2  10 3725.33  297.17
  -2  -2 -10 3686.53  297.37
   2   2 -10 3917.01  296.77
  -2   2  10 3664.93  296.87
   2   2 -10 3595.44  296.37
   2   2 -10 3452.25  297.47
  -2  -2 -10 3825.32  298.47
  -2  -2 -10 3790.82  298.17
   2   2 -10 3916.91  300.37
  -2  -2 -10 3364.96  296.97
  -2   3 -10  106.29   10.80
   2  -3 -10  107.59   12.50
  -2   3 -10   85.39    9.80
  -2  -3  10   99.69    9.00
   2  -3 -10  101.69    9.60
  -2   3 -10   50.89   14.90
  -2  -3  10  104.69    8.70
  -2  -3  10  105.29   12.80
   2  -3 -10  108.19   11.30
  -2  -3 -10   89.09   17.70
   2   3 -10  101.19    9.00
  -2  -3 -10   98.79   11.50
   2  -3  10  106.69   10.00
  -2  -3 -10   95.19   10.40
  -2   3  10  113.79   12.90
   2   3 -10  104.69   10.70
   2   3 -10  119.89   15.80
  -2   3  10  119.69    9.30
   2  -4 -10 1126.69   92.89
   2  -4 -10 1182.78   91.99
  -2   4 -10 1166.68   97.29
   2  -4 -10 1162.78   94.39
  -2  -4  10 1283.07   91.59
  -2  -4  10 1166.18   94.09
   2   4 -10 1158.18   97.69
  -2  -4 -10 1064.19   91.99
  -2   4  10 1127.99   92.29
  -2  -4 -10 1122.59   93.29
  -2  -4 -10 1007.90   98.79
   2  -4  10 1219.48   92.19
   2  -5 -10   45.60   10.30
  -2   5 -10   43.70   22.40
   2  -5 -10   39.00    7.20
  -2  -5  10   40.40   10.60
  -2  -5  10   43.60    6.20
   2  -5 -10   51.69    7.50
   2   5  10   36.40    9.60
  -2  -5 -10   34.30    8.60
  -2  -5 -10   42.10    7.00
   2  -5  10   48.60    7.60
   2   5 -10   64.09   16.30
  -2  -5 -10   48.40   19.30
  -2   5  10   34.90    7.70
  -2  -5 -10   31.90    7.30
  -2  -6  10  457.25   37.00
  -2  -6  10  444.06   40.60
   2   6  10  431.46   40.50
   2  -6 -10  477.75   38.10
   2  -6 -10  450.85   40.90
  -2   6 -10  295.87   53.89
   2  -6 -10  451.95   37.50
   2  -6  10  470.75   37.70
  -2  -6 -10  504.65   49.40
   2  -6  10  428.66   37.40
  -2   6  10  468.35   39.10
  -2  -6 -10  425.86   39.60
  -2  -6 -10  438.16   37.70
   2   6 -10  421.86   46.00
  -2  -6 -10  484.65   37.40
  -2  -7  10    7.00    6.30
  -2  -7  10   16.00   12.40
   2  -7 -10   16.80    7.80
  -2   7 -10   22.40   14.20
   2  -7 -10   12.20    5.60
   2   7  10   16.10   10.80
   2  -7 -10   28.30   11.60
  -2  -7 -10   19.70    6.70
   2  -7  10   15.10    6.40
  -2  -7 -10   11.40    7.30
  -2  -7 -10   13.60    9.90
  -2   7  10   12.00    9.40
   2  -7  10   24.90    8.10
  -2  -7 -10  -12.60   20.30
   2   7 -10   26.30   17.80
  -2  -8  10  462.75   46.80
   2  -8 -10  474.35   42.60
   2  -8 -10  509.45   47.10
  -2  -8  10  533.75   41.90
   2   8  10  493.75   47.80
  -2  -8 -10  395.36   48.30
   2  -8  10  521.45   42.60
  -2  -8 -10  520.75   43.20
   2   8 -10  568.94   58.19
  -2  -9  10   37.60    9.70
  -2  -9  10   22.40   16.00
   2  -9 -10   35.00   10.30
  -2   9 -10    0.50   28.80
   2  -9 -10   35.90   14.60
   2   9  10   27.00   17.90
   2  -9  10   26.80   10.80
  -2  -9 -10   15.50   19.40
  -2  -9 -10   25.80   11.90
   2   9 -10   69.19   28.90
  -2 -10  10   67.09   13.40
  -2 -10  10   56.39   23.90
   2 -10 -10   64.99   18.10
  -2  10 -10   43.00   35.80
   2 -10 -10   59.79   13.10
   2  10 -10   78.99   30.20
   2 -10  10   63.09   14.80
  -2 -10 -10   57.79   13.70
  -2 -10 -10   75.39   25.70
  -3   0 -10   54.69    7.50
  -3   0 -10   65.79    9.20
   3   0 -10   51.29    6.80
   3   0 -10   44.60    4.30
  -3   0  10   68.19   14.60
   3   0 -10   51.59    7.30
   3   0 -10   54.49    8.60
  -3   0  10   45.70    7.60
  -3   1 -10    8.00    4.30
  -3  -1  10    6.70    3.80
   3  -1 -10    9.60    3.70
   3  -1 -10    6.20    2.20
  -3  -1  10   -0.70    7.30
   3  -1 -10   21.40    5.80
  -3   1 -10   15.70    6.20
   3  -1  10    6.20    2.40
  -3   1  10   11.00    4.30
  -3   1  10   -2.60    7.90
   3   1 -10   19.00    7.10
   3  -1  10   10.80    4.60
   3   1 -10   11.30    4.30
   3   1 -10   15.40    4.70
  -3  -1 -10   14.90    5.10
  -3  -2  10    6.90    1.70
   3  -2 -10   10.40    4.50
  -3   2 -10    9.10    4.40
   3  -2 -10    9.90    5.50
  -3  -2  10    8.00    7.60
  -3  -2  10    8.40    3.30
   3  -2 -10   10.30    2.80
  -3   2 -10    8.70    6.60
  -3  -2 -10    7.00    2.60
  -3  -2 -10    5.40    4.90
  -3   2  10   11.40    7.90
  -3   2  10    7.70    3.90
   3   2 -10    7.70    7.20
  -3  -2 -10    8.00    5.30
   3  -2  10    9.30    4.20
   3   2 -10   11.90    3.90
  -3  -3  10   18.00    7.90
   3  -3 -10   14.70    3.90
  -3   3 -10    3.70    9.30
   3  -3 -10   18.50    6.80
  -3   3 -10   11.90    4.50
   3  -3 -10   17.00    5.00
  -3  -3  10   15.70    3.50
  -3  -3  10   12.90    2.70
  -3   3  10   32.80    8.40
   3  -3  10   11.10    4.70
  -3  -3 -10   22.10    6.20
   3   3 -10   18.50    2.70
  -3  -3 -10   23.00    5.90
  -3   3  10   15.00    3.50
   3   3 -10   28.70   10.30
  -3  -4  10   18.00    8.60
   3  -4 -10   29.40    5.50
   3  -4 -10   35.30    6.70
  -3   4 -10   22.30    5.30
   3  -4 -10   29.50    8.50
  -3   4 -10    5.40   11.10
  -3  -4  10   33.20    4.40
  -3  -4  10   26.60    4.00
  -3   4  10   28.10    8.40
   3   4 -10   41.30   13.20
  -3  -4 -10   31.20    6.90
  -3  -4 -10   35.20   16.20
  -3  -4 -10   30.00    7.30
   3  -4  10   32.70    6.50
  -3  -5  10   33.30    4.90
  -3  -5  10   59.49   11.80
  -3   5 -10   34.60   14.60
   3  -5 -10   50.99    7.10
  -3   5 -10   21.90    6.10
  -3  -5 -10   96.19   22.00
  -3   5  10   38.80    9.20
   3  -6 -10    9.00    9.30
   3  -6 -10   14.30    5.50
  -3  -6  10   20.20   11.40
  -3   6 -10  -36.30   14.90
  -3  -6  10    7.80    5.10
   3  -6 -10    2.30    5.90
  -3  -6 -10    7.10    7.30
   3  -6  10    6.30    7.00
   3   6 -10   18.20   15.00
   3  -6  10   14.30    6.20
  -3   6  10    3.20    7.80
  -3  -6 -10    5.90   19.60
  -3  -6 -10   12.70    7.90
  -3  -6 -10   10.30    7.10
   3  -7 -10    4.50    5.30
  -3  -7  10    9.20   12.90
   3   7  10   21.40   12.40
  -3  -7  10   16.30    6.50
  -3   7 -10  -16.10   24.00
  -3   7 -10  -14.40   15.90
   3  -7 -10   21.30    8.00
   3  -7 -10   40.50   12.00
  -3  -7 -10   17.20    8.00
  -3  -7 -10   20.90   10.00
  -3  -7 -10   28.40    8.50
   3  -7  10   15.50    7.40
   3  -7  10    9.30    7.20
   3   7 -10   34.10   18.30
  -3   7  10   14.50    9.90
  -3  -7 -10   27.20   23.30
  -3  -8  10    9.50   13.40
   3   8  10    8.00   13.60
   3  -8 -10    3.30    7.70
   3  -8 -10   15.10   12.20
  -3  -8  10    3.80    7.30
  -3   8 -10   21.80   17.40
   3  -8  10    5.60    8.00
  -3  -8 -10  -43.70   24.10
  -3  -8 -10   11.00   11.50
   3   8 -10   19.70   20.70
  -3  -8 -10   -0.10    9.40
   3   9  10   15.20   15.40
  -3  -9  10   14.50    8.60
   3  -9 -10   29.50   11.40
   3  -9 -10   33.70   14.20
  -3  -9  10   32.30   19.00
  -3   9 -10  -39.10   28.30
   3   9 -10   54.79   28.00
   3  -9  10   13.90    9.70
  -3  -9 -10  -48.00   24.50
  -3  -9 -10   27.30   10.70
  -3 -10  10   -4.40   17.70
  -3 -10  10   -6.50   10.50
   3 -10 -10    4.20   16.10
   3 -10 -10   16.90   11.80
  -3  10 -10  -33.00   36.60
  -3 -10 -10  -21.00   23.80
  -3 -10 -10   -1.20   11.90
   3  10 -10   27.60   29.90
   3 -10  10    3.40   12.50
  -4   0 -10 1624.24  131.39
  -4   0 -10 1580.54  131.39
   4   0 -10 1735.83  131.49
  -4   0  10 1614.54  136.29
   4  -1 -10  340.47   29.70
   4  -1 -10  388.96   32.20
  -4   1 -10  352.66   31.60
  -4   1 -10  368.56   32.50
   4  -1  10  379.46   31.80
  -4  -1 -10  385.86   32.20
   4  -1  10  372.16   30.80
   4   1 -10  363.86   31.50
  -4  -1 -10  404.66   32.30
   4   1 -10  378.26   34.30
   4  -2 -10  974.90   79.29
  -4  -2  10  866.71   84.49
   4  -2 -10 1002.30   81.09
  -4   2 -10  950.40   81.49
   4  -2 -10  975.80   81.49
  -4   2 -10  991.80   80.69
  -4  -2 -10  988.30   80.99
   4  -2  10 1104.49   80.29
   4   2 -10  968.90   83.49
  -4   2  10 1055.49   84.39
  -4  -2 -10 1038.30   81.49
   4  -2  10 1036.40   80.49
  -4  -2 -10 1005.10   80.19
   4  -3 -10   11.80    5.30
  -4  -3  10    2.80    8.60
  -4   3 -10    8.60    4.50
  -4   3 -10   10.20    9.30
   4  -3 -10   18.10    7.20
   4  -3 -10    8.40    3.70
  -4  -3  10   12.40    2.20
   4  -3  10   15.10    6.00
  -4   3  10   11.60    4.30
  -4   3  10   20.20    9.50
  -4  -3 -10    9.70    6.00
  -4  -3 -10    7.70    6.30
  -4  -3 -10   12.00    4.80
   4   3 -10   16.10   10.10
   4  -4 -10  951.90   77.59
  -4   4 -10 1023.20   77.19
  -4  -4  10 1027.70   76.49
  -4   4 -10  844.32   80.39
  -4  -4  10  891.71   75.59
  -4  -4  10  925.21   79.99
   4  -4 -10  966.30   78.89
   4  -4 -10  932.01   76.29
   4   4 -10  961.40   82.49
   4  -4  10  999.40   76.99
  -4   4  10  948.81   79.49
  -4   4  10  997.10   76.19
  -4  -4 -10  874.41   77.39
  -4  -4 -10  962.00   78.29
  -4   5 -10    1.80    4.40
   4  -5 -10   20.80    9.30
  -4  -5  10   -1.10    9.40
  -4  -5  10    3.50    3.80
   4  -5 -10    0.80    5.10
  -4   5 -10  -17.70   10.90
  -4  -5 -10   30.10   21.30
   4   5 -10   16.60   13.50
   4  -5  10    1.70    6.30
  -4  -5 -10   11.70    7.70
  -4  -5 -10    8.20    7.10
  -4   6 -10  461.25   45.20
  -4  -6  10  418.66   33.30
   4  -6 -10  399.26   37.40
  -4  -6  10  409.96   38.90
   4  -6 -10  383.86   33.80
  -4  -6 -10  404.76   36.10
  -4  -6 -10  370.06   35.20
  -4   6  10  384.46   38.60
  -4  -6 -10  384.26   49.10
   4  -6  10  418.96   34.80
  -4  -6 -10  399.96   34.90
   4   6 -10  418.36   44.30
  -4  -7  10  108.49   20.10
   4  -7 -10  116.29   18.70
   4  -7 -10  135.19   14.80
  -4  -7  10  112.49   12.50
   4  -7  10  127.09   15.60
   4   7 -10  124.39   26.80
  -4  -7 -10  144.59   16.50
   4  -7  10   90.39   14.30
  -4  -7 -10  110.19   14.90
  -4  -7 -10   94.29   16.40
  -4  -7 -10  214.38   42.90
  -4  -8  10  209.38   30.10
   4  -8 -10  170.18   23.80
  -4   8 -10  104.89   44.50
  -4   8 -10  147.39   31.90
   4  -8 -10  182.68   20.20
  -4  -8  10  189.18   18.90
  -4  -8 -10  199.38   21.30
   4  -8  10  187.18   20.70
  -4  -8 -10  327.87   52.39
   4   8 -10  236.58   39.40
  -4  -8 -10  226.88   24.70
  -4  -9  10   16.50   17.80
  -4   9 -10  -57.89   35.80
   4  -9 -10   17.30   11.10
   4  -9 -10   10.60   13.20
   4  -9  10   10.40   10.20
  -4  -9 -10   14.20   10.60
  -4  -9 -10  -28.30   31.70
   4   9 -10   44.80   28.80
  -5   0  10   12.10   12.60
  -5   0 -10   28.70    7.40
  -5   0 -10   26.90    8.30
   5   0 -10   25.60    8.10
   5  -1 -10   17.10    3.40
  -5  -1  10   16.30   13.10
  -5   1 -10   28.00    8.40
  -5   1 -10   15.40    6.50
   5  -1 -10   29.00    8.20
  -5   1  10   19.80   12.50
  -5  -1 -10   26.50    7.50
  -5  -1 -10   32.90    8.80
   5  -1  10    8.70    8.00
   5   1 -10   23.80    7.10
   5  -1  10   18.90    3.50
  -5   2 -10   45.80   10.60
   5  -2 -10   46.50   10.20
   5  -2 -10   49.50    5.60
  -5   2 -10   39.50    7.80
  -5  -2  10   16.00   14.00
  -5  -2 -10   40.20    9.30
   5  -2  10   41.90    8.40
   5   2 -10   39.90   12.00
  -5   2  10   43.20    8.30
  -5   2  10   37.60   12.70
  -5  -2 -10   46.90    8.50
  -5  -3  10   23.20   12.30
  -5  -3 -10   18.70    7.00
  -5  -4  10   17.90    3.10
   5  -4 -10   26.80    9.50
  -5  -4  10   10.90   11.40
  -5   4 -10   16.00    6.40
  -5   4 -10   18.90   11.00
   5  -4 -10   21.70    5.40
  -5   4  10   16.20    6.00
   5   4 -10   27.50   13.20
  -5   4  10   19.90   10.30
  -5  -4 -10    9.80    7.70
   5  -4  10   23.50    7.50
  -5  -4 -10    9.50    7.40
  -5  -4 -10   20.70    9.40
   5  -5 -10   18.30    9.10
  -5   5 -10  -13.00   12.70
  -5  -5  10   10.70   11.60
  -5  -5  10    1.40    3.60
   5  -5 -10   14.30    6.00
  -5   5 -10    3.80    5.10
  -5  -5 -10   12.20    8.30
   5   5 -10   21.60   16.50
  -5  -5 -10    5.50    8.30
  -5  -5 -10    8.90    8.60
   5  -5  10   10.50    7.50
  -5  -6  10    5.80    6.00
   5  -6 -10   17.00   10.70
  -5  -6  10   12.30   14.20
   5  -6 -10   15.30    7.30
  -5   6 -10    3.00   15.70
  -5  -6 -10   26.60   22.40
   5   6 -10   19.50   17.30
  -5  -6 -10   12.20   10.20
  -5  -6 -10   10.00   10.00
   5  -6  10    3.00    8.30
  -5  -6 -10    8.00    9.90
   5  -7 -10   31.80    9.10
  -5  -7  10   21.10   15.30
   5  -7 -10   38.50   14.10
  -5   7 -10   41.50   23.20
  -5  -7 -10   57.09   11.60
  -5  -7 -10   30.90   13.70
  -5  -7 -10   62.49   13.00
   5  -7  10   58.99   11.40
  -5  -7 -10   82.69   31.80
   5   7 -10   69.39   24.90
  -5   8 -10  -17.30   33.70
  -5  -8  10   11.10   18.50
   5  -8 -10   -5.80    8.60
   5  -8 -10   -1.60   12.20
  -5  -8 -10   -3.20    9.80
  -5  -8 -10   -5.40   13.90
  -5  -8 -10   15.20   12.20
   5  -8  10   -3.20    9.20
   5   8 -10   13.30   24.50
  -5  -8 -10   -6.80   28.40
  -5  -8 -10   -2.00   10.60
  -5  -9  10   23.20   19.30
   5  -9 -10   32.40   11.60
   5  -9 -10   18.70   16.30
  -5   9 -10  -55.79   34.30
   5   9 -10   35.80   26.80
  -5  -9 -10    2.00   15.80
   5  -9  10   35.10   13.10
  -5  -9 -10  -13.60   30.20
  -5  -9 -10   11.30   12.80
  -6   0 -10 1013.30   76.49
   6   0 -10  821.32   75.49
  -6   0 -10  934.11   75.99
  -6   1 -10   94.59   13.30
   6  -1 -10   79.29    9.70
  -6  -1  10  103.69   23.10
  -6   1 -10  100.69   14.70
   6  -1 -10  103.09   14.60
  -6  -1 -10   99.79   14.30
  -6  -1 -10  104.69   14.00
  -6   1  10   68.69   18.60
   6  -1  10   92.99   10.00
   6   1 -10  101.99   12.90
   6  -2 -10  310.47   27.00
  -6   2 -10  326.67   30.40
   6  -2 -10  332.47   30.60
  -6  -2  10  231.48   36.90
  -6   2 -10  341.97   29.70
  -6  -2 -10  331.27   30.50
  -6  -2 -10  300.77   27.60
  -6  -2 -10  315.47   30.00
   6  -2  10  343.67   29.50
  -6   2  10  373.86   35.00
  -6   2  10  373.66   29.40
  -6  -3  10   49.00   19.30
   6  -3 -10   78.19    9.90
   6  -3 -10   88.49   15.00
  -6   3 -10   87.39   12.50
  -6   3 -10   99.99   16.50
  -6  -3 -10   89.69   14.10
   6  -3  10  107.89   13.50
  -6  -3 -10  112.69   15.60
  -6   3  10   89.49   12.60
  -6   3  10  108.19   17.50
  -6  -3 -10  133.09   14.90
   6   3 -10   98.49   19.50
  -6  -4  10  299.37   37.70
  -6   4 -10  335.67   29.70
   6  -4 -10  304.77   28.00
   6  -4 -10  348.97   32.20
  -6   4 -10  360.46   33.80
   6   4 -10  346.97   37.30
   6  -4  10  336.27   29.40
  -6   4  10  312.77   29.30
  -6  -4 -10  344.07   31.70
  -6  -4 -10  352.86   31.70
  -6   4  10  336.57   33.80
  -6   5 -10   22.80   15.50
  -6   5 -10   17.40    7.60
   6  -5 -10   19.50   11.30
   6  -5 -10   20.10    6.80
  -6  -5  10   20.30   14.90
  -6  -5 -10   18.80   10.30
  -6  -5 -10   29.20   10.40
   6  -5  10   17.90    9.00
  -6  -5 -10   21.20   11.30
   6   5 -10   35.10   19.30
  -6  -6  10  353.36   40.20
   6  -6 -10  369.36   37.70
   6  -6 -10  356.76   32.90
   6  -6  10  387.46   34.20
  -6  -6 -10  354.86   37.10
   6   6 -10  386.16   44.70
  -6  -6 -10  551.94   53.29
  -6  -6 -10  346.07   35.50
  -6  -6 -10  420.56   35.90
  -6  -7  10    3.50   17.90
  -6   7 -10   21.20   22.20
   6  -7 -10    3.90    8.00
   6  -7 -10    0.60   12.60
  -6  -7 -10    5.70    9.90
   6   7 -10    9.80   20.30
   6  -7  10   12.70   10.40
  -6  -7 -10   28.60   23.20
  -6  -7 -10   -6.70   12.50
  -6  -7 -10   -1.10   11.40
  -6  -7 -10   -4.00   11.20
  -6  -8  10   66.69   21.90
   6  -8 -10   69.39   13.10
   6  -8 -10   78.59   18.50
   6  -8  10   53.79   12.90
  -6  -8 -10  120.49   36.50
  -6  -8 -10   57.89   15.80
  -6  -8 -10   78.29   14.50
  -6  -8 -10   69.99   16.80
   6   8 -10   98.89   32.60
  -7   0 -10   17.20   10.50
  -7   0 -10   19.80    9.90
  -7   0  10  -14.20   15.60
   7   0 -10   24.00    9.80
   7  -1 -10   35.10   11.40
  -7   1 -10   35.30   11.30
  -7  -1  10   21.70   19.00
  -7   1 -10   16.50    9.60
  -7  -1 -10   32.00   10.50
  -7   1  10   18.10   16.50
  -7   1  10   28.40   10.50
  -7  -1 -10   50.59   11.60
  -7  -2  10   14.10   20.60
  -7   2 -10   19.10    9.20
  -7   2 -10   24.70   12.30
   7  -2 -10   16.30    6.50
   7  -2 -10   25.20   10.80
  -7  -2 -10   21.90   10.40
  -7  -2 -10   31.20   12.30
   7  -2  10   14.70   10.00
  -7   2  10   21.50   10.00
  -7   2  10   30.70   16.50
  -7   3 -10   22.50   12.60
   7  -3 -10   11.20    5.80
  -7  -3  10   -6.80   15.70
  -7   3 -10   -1.50    7.60
   7  -3 -10   10.30   10.30
  -7  -3 -10   21.40   10.60
   7  -3  10   12.30    9.00
  -7   3  10   24.30   14.40
  -7  -3 -10   28.60   12.10
  -7   3  10   16.90    9.20
   7  -4 -10   14.30   11.40
  -7   4 -10    4.00    7.50
  -7  -4  10   -1.30   15.40
  -7   4 -10   10.10   12.90
   7  -4 -10    6.20    6.30
  -7  -4 -10   15.10   10.50
  -7  -4 -10   11.40   12.10
   7   4 -10   12.90   15.60
  -7   4  10   21.40   13.30
  -7   4  10    8.50    8.90
   7  -4  10    9.30    9.00
   7  -5 -10   28.50    8.10
  -7   5 -10   39.60   17.00
  -7   5 -10   12.70    8.80
   7  -5 -10   24.30   12.70
  -7  -5  10   21.90   19.80
  -7  -5 -10   70.79   14.40
   7   5 -10   49.30   20.40
   7  -5  10   46.40   10.00
  -7  -5 -10   43.30   12.70
   7  -6 -10    7.10    7.80
   7  -6 -10   21.70   13.70
  -7   6 -10   17.90   17.60
  -7  -6  10    8.60   19.60
  -7  -6 -10   11.50   13.10
   7  -6  10    5.60    9.30
   7   6 -10   17.40   20.00
  -7  -6 -10   -2.20   11.00
   7  -7 -10    9.00    9.00
   7  -7 -10    7.70   13.90
  -7   7 -10   62.59   20.70
  -7  -7  10   11.80   18.80
   7  -7  10   10.10   11.60
   7   7 -10   16.30   22.70
  -7  -7 -10   15.70   13.80
  -7  -7 -10   10.30   10.90
  -7  -7 -10   48.00   24.30
  -7  -7 -10   14.10   12.20
   7  -8 -10   13.50   16.00
   7  -8 -10   11.40   10.70
  -7  -8 -10   63.19   26.40
  -7  -8 -10    5.50   12.20
   7  -8  10   13.80   11.00
  -8   0  10    4.90   21.30
  -8   0  10   36.10   13.60
  -8   0 -10   53.49   15.30
  -8   0 -10   38.60   12.80
  -8  -1  10  -31.00   18.50
  -8   1 -10   23.20   12.40
   8  -1 -10   20.30   11.30
  -8  -1  10   11.40   12.90
  -8   1 -10   14.00   10.80
  -8   1  10   23.40   17.50
  -8   1  10    5.60   11.50
  -8  -1 -10   24.00   14.00
  -8  -1 -10   12.80   11.10
  -8   2 -10  405.56   36.70
  -8   2 -10  378.16   37.20
  -8  -2  10  343.27   48.50
   8  -2 -10  380.86   38.10
  -8   2  10  387.76   36.80
  -8   2  10  434.16   43.90
  -8  -2 -10  380.96   37.80
  -8  -2 -10  396.16   37.40
  -8   3 -10   -2.00    9.40
  -8  -3  10   -9.20   18.40
   8  -3 -10    3.70   11.70
  -8   3 -10   10.60   13.50
   8  -3  10   -4.00   10.40
  -8  -3 -10    3.40   11.10
  -8   3  10   12.30   14.30
  -8   3  10    4.10   10.40
  -8  -3 -10   -0.50   11.60
  -8  -4  10   94.79   28.00
  -8   4 -10  137.99   18.80
  -8   4 -10  157.18   24.40
   8  -4 -10  180.48   24.60
  -8  -4 -10  143.79   20.60
  -8   4  10  195.08   25.50
   8  -4  10  183.68   20.60
  -8  -4 -10  151.98   21.50
   8  -5 -10   10.20   13.40
  -8   5 -10   19.40   16.80
  -8  -5  10    5.90   17.70
  -8   5 -10    8.00   10.00
  -8  -5 -10    2.90   11.80
  -8  -5 -10    9.40   13.90
   8  -5  10   14.30   11.00
  -8  -6  10   79.39   26.50
   8  -6 -10   54.69   17.00
  -8   6 -10   83.09   22.80
   8  -6 -10   50.79   17.10
  -8  -6 -10   53.89   15.70
  -8  -6 -10   67.39   16.90
   8  -6  10   61.29   13.90
   8  -7 -10    9.40   13.30
  -8  -7  10   26.00   25.60
   8  -7 -10    4.40   15.30
  -8  -7 -10   67.09   29.20
  -8  -7 -10    5.70   11.80
   8  -7  10   17.10   12.00
  -9   0 -10   14.80   15.10
  -9   0 -10   10.60   12.70
  -9   0  10   -7.40   19.50
  -9   0  10    8.70   14.80
  -9  -1  10   -2.40   14.20
  -9   1 -10   27.70   16.00
  -9   1 -10   12.10   12.40
  -9  -1  10  -60.19   21.50
  -9  -1 -10   21.90   13.20
  -9  -1 -10   34.40   16.30
  -9   1  10   13.50   18.80
  -9   1  10   21.80   14.50
   9  -2 -10    1.20   14.20
  -9   2 -10   -5.30   12.80
  -9   2 -10   -4.50   11.30
  -9  -2  10  -64.49   23.40
  -9  -2  10   -1.50   13.90
  -9   2  10    0.30   13.40
  -9   2  10   12.90   16.90
  -9  -2 -10    7.50   13.40
  -9  -2 -10    2.60   12.80
  -9  -3  10  -14.80   22.60
  -9  -3  10   10.90   15.50
  -9   3 -10    8.50   13.50
   9  -3 -10    8.00   13.40
  -9   3 -10   -2.80   10.80
  -9   3  10    7.40   13.30
  -9  -3 -10   12.90   13.10
  -9  -3 -10   27.70   15.90
   9  -3  10   23.00   12.60
  -9   3  10   34.50   19.00
  -9  -4  10   13.30   23.80
   9  -4 -10   14.80   14.30
  -9   4 -10   27.70   17.20
  -9   4 -10    1.50   10.60
  -9  -4 -10   15.80   17.00
   9  -4  10   14.30   11.60
  -9   4  10   23.10   18.10
  -9  -4 -10   -9.30   12.90
  -9  -5  10   37.20   22.00
   9  -5 -10   20.70   15.50
  -9   5 -10   42.80   19.60
   9  -5  10   26.50   12.20
  -9  -5 -10   38.20   17.40
  -9  -5 -10   18.80   14.90
 -10   0 -10  226.48   29.60
 -10   0  10  204.18   37.50
 -10   0 -10  182.68   25.90
 -10   0  10  165.38   26.30
 -10  -1  10  -12.80   17.10
 -10   1 -10   -0.20   15.20
 -10  -1  10  -38.20   24.70
 -10   1 -10    2.10   13.60
 -10  -1 -10  -10.20   16.10
 -10   1  10    0.50   20.20
 -10  -1 -10  -12.30   13.10
 -10   1  10   -5.50   15.60
 -10   2 -10   44.40   19.80
 -10   2 -10   14.70   13.90
 -10  -2  10   47.50   21.70
 -10  -2  10  -53.69   26.00
 -10  -2 -10   51.39   20.00
 -10  -2 -10   15.90   14.80
 -10   2  10   38.40   17.30
 -10   2  10   46.30   22.70
 -10  -3  10  -12.30   19.00
 -10  -3  10  -56.59   26.20
 -10   3 -10  -17.80   12.00
 -10   3 -10   21.90   19.40
  10  -3 -10    3.60   14.90
 -10  -3 -10  -12.80   17.70
 -10   3  10   11.20   17.60
 -10  -3 -10    0.20   15.10
   0   0 -11   16.60    5.90
   0   0 -11   11.80    7.10
   0   0 -11   13.00    6.70
   0   0  11   12.80    6.40
   0   0 -11   17.60    6.60
   0   1 -11    1.00    5.60
   0  -1  11   -4.50    4.10
   0   1 -11   -5.40    6.20
   0   1  11   -3.10    4.60
   0   1 -11   -0.30    4.20
   0  -1 -11    2.50    6.00
   0  -1 -11   -1.50    5.90
   0   1 -11    4.40    4.60
   0  -1  11   -2.60    3.10
   0   1 -11    1.40    7.10
   0  -1 -11    1.90    3.30
   0  -1 -11   -3.40    4.80
   0   1 -11   -4.00    2.90
   0   2 -11   16.20   11.80
   0  -2  11   20.10    5.80
   0  -2 -11    4.20    4.80
   0  -2 -11   11.30    7.50
   0  -2 -11   13.80    8.30
   0   2  11   17.60    4.90
   0   2  11   24.90    4.70
   0  -2  11   18.40    5.20
   0   2 -11   22.10    5.00
   0  -2 -11   20.80    3.30
   0  -2  11   22.10    3.90
   0  -3  11    3.00    4.40
   0  -3  11   -1.80    2.90
   0  -3 -11   -7.90    7.60
   0   3 -11   -6.10   10.40
   0  -3  11    1.90    4.90
   0  -3 -11   -4.00    6.50
   0  -3 -11   -5.90    3.40
   0   3 -11  -15.40    6.60
   0   3  11    0.40    2.30
   0  -3 -11   -2.30    3.50
   0   3 -11   -0.70    3.80
   0  -4  11  153.48   16.20
   0   4  11  153.48   14.00
   0  -4 -11  152.98   13.90
   0   4 -11  149.59   13.80
   0  -4 -11  185.08   19.20
   0   4 -11  179.78   19.10
   0  -4 -11  114.99   20.40
   0  -4 -11  141.99   13.50
   0  -4  11  150.68   13.60
   0  -5 -11    1.40    8.50
   0   5 -11  -13.70   13.20
   0  -5 -11  -12.30    9.60
   0  -5  11    1.70    6.50
   0  -5 -11   -0.40    4.50
   0  -5  11   -8.00    3.90
   0   5  11   -3.70    4.70
   0  -5 -11    2.50    2.70
   0  -5  11   -1.60    4.10
   0   5 -11    1.40    2.90
   0  -6 -11   50.79   15.30
   0   6 -11   37.30   22.60
   0  -6 -11   64.29    8.90
   0   6  11   53.49   10.20
   0  -6  11   71.19    8.80
   0  -6  11   67.49   12.30
   0  -6 -11   42.20   13.10
   0  -7  11   -0.30    6.50
   0  -7  11   -0.40    9.70
   0  -7 -11   -9.00   13.70
   0  -7 -11    0.30    6.50
   0   7 -11   -1.20   19.70
   0   7  11   -3.30    8.50
   0  -7 -11  -25.60    8.10
   0  -8 -11   52.49   18.00
   0  -8  11   33.30   14.00
   0  -8 -11   52.19   11.10
   0   8  11   48.50   18.50
   0   8 -11   45.20   25.70
   0  -8  11   48.20    9.90
   0  -9 -11   -0.80    9.70
   0   9 -11   22.90   27.50
   0  -9  11    1.90    9.10
   0  -9 -11   12.10   17.10
   0  -9  11   -5.40   13.90
   0 -10  11   59.39   12.70
   0 -10 -11   59.29   19.80
   0 -10 -11   41.20   13.20
   0 -10  11   53.09   20.20
   0  10 -11   74.69   31.10
   1   0 -11    1.50    4.20
   1   0  11   -2.00    5.00
  -1   0  11   -1.10    3.90
  -1   0 -11   -7.80    5.20
   1   0 -11    2.90    4.90
   1   0 -11   -3.30    4.50
   1   0 -11   -0.70    4.00
  -1   0 -11   -5.20    3.40
  -1   0  11   -0.60    5.70
  -1   0 -11    1.00    4.30
   1  -1 -11  930.71   79.79
  -1  -1  11  964.30   80.29
   1  -1 -11  858.21   79.99
   1  -1 -11 1093.29   77.79
   1   1  11  969.50   78.49
   1  -1 -11  951.40   78.69
  -1   1 -11  854.01   79.39
  -1  -1 -11  860.21   78.39
   1   1 -11 1041.80   78.29
  -1  -1 -11 1019.80   78.79
   1  -1  11 1075.49   78.69
  -1  -1 -11 1018.60   79.79
   1   1 -11  881.01   80.89
   1  -1  11 1047.60   78.29
  -1  -1 -11  890.21   80.79
   1   1 -11 1063.69   79.89
   1   1 -11 1042.90   79.39
  -1  -2  11  126.49   13.60
  -1  -2  11  123.29   10.80
  -1   2 -11  146.89   18.80
   1  -2 -11   88.19   14.50
   1  -2 -11  108.99   14.30
   1   2  11  149.88   11.70
  -1  -2 -11  115.59   11.80
  -1  -2 -11  102.19   13.40
   1   2 -11   94.39   16.10
  -1  -2 -11  122.69   12.00
   1  -2  11  141.39   14.10
   1  -2  11  125.29   12.20
  -1   2  11  129.79   12.40
  -1   2  11  123.99   14.30
   1   2 -11  133.49   10.70
  -1  -2 -11  115.59   18.00
   1   2 -11  135.49   12.30
   1   2 -11  123.39   10.50
  -1  -2 -11  124.79   11.80
   1  -2  11  123.49   11.40
   1  -3 -11 1462.75  130.59
   1  -3 -11 1619.74  127.69
  -1  -3  11 1649.73  127.39
  -1   3 -11 1527.45  127.39
  -1   3 -11 1826.72  130.29
  -1   3 -11 1737.23  132.39
  -1  -3  11 1599.94  129.29
  -1  -3 -11 1648.24  128.99
  -1  -3 -11 1456.75  127.59
   1  -3  11 1593.54  128.49
   1  -3  11 1678.83  128.49
   1   3 -11 1555.74  128.09
  -1   3  11 1521.25  126.99
  -1   3  11 1799.12  129.89
  -1  -3 -11 1507.25  129.59
   1  -3  11 1575.04  127.59
  -1  -3 -11 1876.71  134.09
   1   3 -11 1407.26  133.19
  -1  -4  11  259.07   24.30
  -1  -4  11  251.47   23.90
   1  -4 -11  221.98   25.50
  -1   4 -11  257.07   21.90
  -1   4 -11  271.87   35.30
   1  -4 -11  262.97   26.60
  -1  -4  11  290.67   22.00
   1  -4 -11  259.47   22.30
  -1  -4 -11  339.97   31.10
  -1  -4 -11  201.58   24.40
   1   4 -11  204.98   29.60
   1  -4  11  272.87   24.00
  -1   4  11  255.87   21.90
   1   4 -11  271.67   22.30
  -1  -4 -11  253.97   24.90
  -1  -4 -11  284.37   22.10
   1  -4  11  278.37   22.50
   1  -4  11  274.97   22.20
  -1  -5  11  497.35   42.30
   1  -5 -11  493.05   42.40
   1  -5 -11  485.75   44.10
   1  -5 -11  478.95   40.10
  -1   5 -11  376.86   50.99
  -1   5 -11  489.55   39.40
  -1  -5  11  518.05   39.70
   1   5  11  527.45   41.40
  -1   5 -11  360.16   43.50
   1   5 -11  446.56   49.50
  -1  -5 -11  463.55   39.40
  -1  -5 -11  542.65   48.60
   1  -5  11  511.55   40.10
  -1  -5 -11  520.25   40.50
  -1   5  11  505.45   40.40
   1   6  11  104.49   14.80
  -1   6 -11  129.29   18.70
  -1  -6  11  106.79   15.90
   1  -6 -11  115.59   14.10
   1  -6 -11  121.49   18.50
   1  -6 -11  102.09   12.00
  -1  -6  11  113.39   11.00
  -1  -6 -11  100.19   11.70
   1   6 -11  128.39   25.90
  -1  -6 -11   65.49   15.10
  -1  -6 -11   67.29   20.90
  -1   6  11  106.99   13.00
  -1  -6 -11   86.59   10.10
   1  -6  11  121.59   12.40
  -1  -7  11  426.16   37.40
   1  -7 -11  460.05   39.10
   1   7  11  443.66   40.50
  -1  -7  11  452.75   42.20
   1  -7 -11  437.66   42.80
   1  -7 -11  435.16   38.10
   1  -7  11  467.75   38.00
  -1   7  11  433.86   39.80
  -1  -7 -11  442.66   38.40
  -1  -7 -11  531.25   44.80
   1   7 -11  418.66   49.99
  -1  -8  11    2.40   12.00
  -1  -8  11    9.20    7.10
  -1   8 -11   -7.90   23.80
   1  -8 -11    3.90    8.30
   1   8  11    3.10   10.40
   1  -8 -11    9.90   12.70
  -1  -8 -11   -5.80   15.30
   1   8 -11   27.80   24.30
   1  -8  11    6.90    7.90
  -1  -8 -11    3.50    9.10
   1  -9 -11  170.38   21.10
  -1   9 -11  159.58   41.10
  -1  -9  11  203.78   20.20
   1  -9 -11  201.98   27.90
  -1  -9  11  198.78   29.40
   1  -9  11  193.48   19.90
  -1  -9 -11  191.48   30.90
   1   9 -11  217.48   39.80
  -1  -9 -11  203.98   22.90
  -1 -10  11  -10.50   19.10
  -1  10 -11    5.20   27.80
   1 -10 -11    9.50   11.80
   1 -10 -11   10.20   17.70
  -1 -10  11   -5.10    9.80
  -1 -10 -11   -1.10   12.20
  -1 -10 -11    8.30   20.20
   1 -10  11    1.00   10.90
   1 -10  11  -15.50   17.10
   1  10 -11   11.30   25.60
   2   0 -11    3.20    4.20
   2   0 -11    4.70    3.80
  -2   0 -11   -0.80    2.90
  -2   0  11   -1.50    3.30
  -2   0 -11    2.40    2.20
   2   0  11   -3.60    2.90
  -2   0 -11    0.10    4.30
  -2   0  11    0.40    7.40
  -2   0  11   -0.50    3.60
   2   0 -11   -0.30    3.60
  -2  -1  11   75.79   15.10
   2  -1 -11  132.69   12.60
  -2   1 -11  116.09   12.10
  -2   1 -11  126.69   14.00
  -2  -1  11  120.09   11.10
   2  -1 -11  132.19   12.70
   2  -1  11  104.49   11.50
  -2  -1 -11  121.99   12.10
   2  -1  11  118.89   11.00
   2   1 -11  124.29   10.10
  -2   1  11  120.19   11.00
   2   1 -11  115.49   11.10
   2   1 -11  126.49   12.10
   2   1 -11  133.29   14.20
  -2  -1 -11  129.79   12.60
  -2   1  11  125.99   11.30
  -2  -1 -11   99.39   10.90
   2  -2 -11   59.59    6.10
  -2   2 -11   37.10   10.30
  -2  -2  11   53.09    6.00
  -2  -2  11   56.09    5.50
  -2  -2  11   60.29   10.20
   2  -2 -11   70.49    8.70
  -2   2 -11   45.30    7.20
  -2  -2 -11   68.29    8.80
   2   2 -11   89.49   13.00
   2   2 -11   65.19    7.50
   2  -2  11   53.69    7.10
   2   2 -11   42.30    5.10
  -2   2  11   52.19    6.40
  -2   2  11   72.29   11.70
  -2   2  11   46.50    5.30
   2   2 -11   55.79    6.10
  -2  -2 -11   52.59    6.50
  -2  -2 -11   77.69    7.90
  -2  -2 -11   55.69    8.50
   2  -2  11   49.70    6.80
  -2  -3  11   34.70    3.90
  -2  -3  11   43.40    4.60
  -2   3 -11    7.80   10.40
  -2   3 -11   23.30    4.80
   2  -3 -11   44.60    8.80
  -2  -3  11   32.10    8.50
  -2   3 -11   40.30    6.90
   2  -3 -11   50.09    5.70
   2  -3 -11   40.40    7.30
   2  -3  11   36.40    5.80
  -2  -3 -11   34.80    7.30
  -2  -3 -11   46.90    6.60
  -2   3  11   57.89   10.20
  -2  -3 -11   46.70   13.50
  -2   3  11   34.40    4.30
   2   3 -11   45.20   11.90
   2   3 -11   36.90    5.90
   2   3 -11   45.10    4.60
  -2  -4  11   27.90    8.50
  -2  -4  11   28.50    4.70
  -2   4 -11   38.50   14.70
   2  -4 -11   44.20    6.20
  -2   4 -11   15.00    5.90
   2  -4 -11   36.10    7.40
   2  -4 -11   49.40   10.00
  -2  -4 -11   36.60    7.70
   2   4 -11   43.80   14.40
  -2  -4 -11   50.29   15.90
   2  -4  11   40.10    6.50
  -2  -4 -11   30.50    6.00
  -2   4  11   33.50    5.60
  -2   5 -11   19.20   20.60
  -2  -5  11   28.20   10.20
  -2   5 -11    5.80   14.60
   2  -5 -11   35.60   10.50
   2  -5 -11   38.30    7.60
  -2  -5  11   29.80    5.40
   2  -5 -11   27.30    6.30
  -2  -5 -11   40.80   18.10
  -2  -5 -11   27.60    8.50
   2  -5  11   30.90    6.40
  -2  -5 -11   40.70    6.70
  -2   5  11   27.30    6.50
   2   5 -11   40.10   15.20
   2  -6 -11   81.19   15.30
  -2  -6  11   68.39   14.30
  -2   6 -11   22.70   17.50
   2  -6 -11  100.89   11.50
   2  -6 -11  101.09   11.50
  -2  -6  11   89.39    9.80
  -2   6 -11   77.39   29.70
   2   6  11   93.59   14.50
  -2  -6 -11   93.39   12.30
  -2  -6 -11   89.09   23.90
  -2  -6 -11  107.29   10.90
   2  -6  11   81.59   10.80
  -2  -6 -11   83.49   13.90
   2   6 -11  104.19   22.40
  -2   6  11   77.79   12.00
   2  -7 -11    9.40    6.80
   2   7  11   -4.70    9.70
   2  -7 -11    6.00    5.70
  -2   7 -11  -50.09   23.20
  -2  -7  11    2.60    6.10
  -2  -7  11    5.10   10.90
   2  -7 -11   10.80   11.30
  -2   7 -11   10.90   15.10
   2   7 -11   14.30   18.40
   2  -7  11   -4.50    7.10
  -2  -7 -11    1.20    7.20
  -2  -7 -11   -0.10    5.80
  -2  -7 -11  -16.40   20.80
   2  -7  11    3.20    5.80
  -2   7  11    6.00    7.90
  -2  -7 -11    9.00    9.40
  -2   8 -11  -14.40   26.40
   2  -8 -11   65.59   15.20
   2   8  11   38.70   13.40
  -2  -8  11   63.29   17.30
   2  -8 -11   61.49   11.30
  -2  -8  11   51.79    9.50
   2  -8  11   41.20   10.30
  -2  -8 -11  -15.80   22.70
   2   8 -11   82.59   25.40
  -2  -8 -11   69.49   12.40
  -2  -8 -11   58.49   14.30
  -2  -9  11    7.10    8.70
  -2   9 -11  -31.30   31.20
  -2  -9  11   -3.10   17.10
   2  -9 -11    4.60    9.50
   2  -9 -11    2.90   14.60
  -2  -9 -11  -39.00   21.00
  -2  -9 -11    8.50   11.00
   2  -9  11    7.80    9.90
   2   9 -11   28.60   25.20
   2 -10 -11   30.10   17.00
  -2 -10  11    4.30   18.40
   2 -10 -11   16.10   10.70
  -2  10 -11   25.30   35.30
  -2 -10  11    6.40   10.20
   2  10 -11   61.39   32.40
   2 -10  11    9.40   10.20
  -2 -10 -11   11.40   11.40
  -2 -10 -11   21.90   24.30
   3   0 -11    1.00    1.30
  -3   0  11   -2.50    9.00
  -3   0 -11   -2.20    5.40
  -3   0  11   -0.90    3.30
   3   0 -11    6.70    5.40
   3   0 -11    4.30    4.30
  -3   0 -11    1.00    4.20
   3   0 -11    3.90    4.10
  -3   1 -11 1588.74  127.59
   3  -1 -11 1503.95  125.99
  -3   1 -11 1532.05  127.89
  -3  -1  11 1671.23  127.19
   3  -1 -11 1397.16  127.49
   3  -1 -11 1563.54  127.79
  -3  -1 -11 1644.24  127.59
   3  -1  11 1568.34  127.39
   3  -1  11 1636.04  126.19
   3   1 -11 1643.04  127.19
  -3   1  11 1616.54  127.29
   3   1 -11 1633.54  127.69
  -3  -1 -11 1692.03  127.99
   3   1 -11 1639.54  129.39
  -3  -2  11   48.70    6.00
   3  -2 -11   42.40    7.40
   3  -2 -11   47.40    5.40
  -3   2 -11   47.10    7.20
   3  -2 -11   66.99    9.90
  -3  -2  11   40.20   10.80
  -3   2 -11   46.80    9.80
  -3   2  11   52.19   11.60
  -3  -2 -11   53.99    5.70
   3   2 -11   43.90    4.20
   3   2 -11   50.99    7.50
  -3  -2 -11   56.79    8.40
   3   2 -11   63.69   12.10
   3   2 -11   47.50    6.70
   3  -2  11   41.70    6.10
  -3   2  11   45.80    6.50
  -3  -2 -11   42.00    7.40
   3  -2  11   62.49    7.90
  -3  -3  11  235.58   20.90
  -3   3 -11  190.48   25.40
  -3   3 -11  273.37   22.40
  -3  -3  11  270.57   25.40
   3  -3 -11  253.97   21.00
   3  -3 -11  250.37   22.60
   3  -3 -11  279.17   24.10
  -3  -3  11  240.68   20.40
   3   3 -11  253.97   20.30
   3   3 -11  266.27   27.20
   3  -3  11  249.97   21.70
  -3   3  11  268.37   25.30
  -3   3  11  258.07   20.90
  -3  -3 -11  245.08   21.40
  -3  -3 -11  237.38   22.60
  -3  -3 -11  252.67   22.30
  -3   4 -11    7.20   11.00
  -3   4 -11   40.10    7.20
  -3  -4  11   55.29    5.90
   3  -4 -11   56.99   10.70
  -3  -4  11   54.49   11.40
  -3  -4  11   48.40    5.50
   3  -4 -11   57.29    8.70
   3  -4 -11   63.59    7.40
   3   4 -11   73.19   15.90
   3  -4  11   43.90    7.40
  -3  -4 -11   71.89   18.90
  -3  -4 -11   49.20    8.30
  -3  -4 -11   51.49    9.20
  -3   4  11   59.59   11.20
  -3  -5  11 1121.79   91.49
   3  -5 -11 1233.98   93.29
  -3  -5  11 1007.90   90.99
   3  -5 -11 1168.08   92.19
  -3  -5  11 1142.09   95.19
  -3  -5  11 1208.78   90.99
  -3   5 -11 1042.00   92.79
  -3   5 -11 1235.38   99.39
   3  -5 -11 1151.08   95.09
   3  -5  11 1188.38   92.49
  -3  -5 -11 1073.19  102.89
  -3  -5 -11 1118.89   93.89
  -3  -5 -11 1262.37   92.79
  -3   5  11 1135.89   93.49
   3   5 -11 1188.08   99.59
  -3   6 -11    2.40   18.20
   3  -6 -11   42.00   12.00
   3  -6 -11   25.20    7.50
   3  -6 -11   22.30    6.60
  -3  -6  11   24.30    5.90
  -3  -6  11   19.20   11.00
  -3  -6 -11   25.20    7.80
  -3  -6 -11   18.60    8.50
   3   6 -11   33.70   17.00
   3  -6  11   37.90    8.50
  -3  -6 -11   26.40    8.90
  -3   6  11   17.10    8.40
  -3  -6 -11   53.39   25.80
  -3  -7  11  175.68   23.20
   3  -7 -11  176.88   17.00
  -3   7 -11   71.19   26.20
   3  -7 -11  172.08   17.30
  -3  -7  11  173.18   16.20
  -3   7 -11  129.69   41.40
   3  -7 -11  181.58   23.20
  -3  -7 -11  256.57   40.70
  -3  -7 -11  159.48   17.50
   3  -7  11  175.58   17.80
   3   7 -11  211.48   34.30
  -3  -7 -11  165.08   18.70
  -3  -7 -11  173.48   20.10
   3  -8 -11   30.00   13.90
  -3   8 -11  -55.29   25.70
  -3  -8  11    6.10   13.80
  -3  -8  11    6.90    7.50
   3   8  11   20.40   15.30
   3  -8 -11   16.90    9.00
  -3   8 -11    3.80   17.30
   3  -8  11   12.30    8.90
   3   8 -11   37.90   25.20
  -3  -8 -11  -25.40   23.30
  -3  -8 -11   18.60   13.10
  -3  -8 -11   12.90   10.40
   3  -9 -11  136.89   22.90
  -3  -9  11  136.49   16.20
  -3  -9  11  144.59   25.30
   3  -9 -11  164.18   19.10
  -3  -9 -11   37.30   33.70
   3  -9  11  154.98   18.90
  -3  -9 -11  127.19   18.00
   3   9 -11  160.88   35.70
  -3 -10  11   -1.90   19.00
  -3  10 -11  -42.80   38.80
  -3 -10  11    2.80    9.50
   3 -10 -11    4.70   11.50
   3 -10 -11    9.60   17.60
  -3 -10 -11   -7.10   11.80
   3 -10  11   -2.30   11.50
   3  10 -11   22.00   28.00
  -3 -10 -11  -36.10   26.50
  -4   0 -11    8.90    5.30
  -4   0 -11   18.70    7.40
  -4   0  11   15.00   11.40
   4   0 -11   10.60    6.00
   4  -1 -11  160.08   15.80
  -4   1 -11  151.18   15.40
  -4   1 -11  173.18   16.40
   4  -1 -11  145.19   13.00
  -4  -1  11  107.49   20.70
   4  -1 -11  170.58   16.50
   4   1 -11  167.58   18.90
   4  -1  11  144.09   16.10
  -4  -1 -11  160.38   16.10
   4   1 -11  154.08   15.00
  -4  -1 -11  184.08   16.70
  -4   2 -11    8.70    5.40
   4  -2 -11   11.70    5.30
   4  -2 -11    7.70    2.90
   4  -2 -11   12.50    6.30
  -4   2 -11    3.40    6.70
  -4  -2  11    7.20    9.30
  -4  -2 -11   13.70    6.30
   4  -2  11    9.90    3.70
  -4   2  11    1.20    3.70
  -4  -2 -11    9.20    2.60
  -4   2  11   11.40   10.30
   4   2 -11   14.80    8.50
  -4  -2 -11    6.60    3.80
   4  -2  11   11.60    5.20
   4   2 -11    7.90    4.90
   4  -3 -11  150.88   16.70
  -4  -3  11  141.79   19.60
  -4   3 -11  158.18   15.20
  -4   3 -11  137.59   17.50
   4  -3 -11  168.58   13.60
  -4  -3  11  151.58   12.40
  -4  -3  11  143.29   13.90
   4  -3 -11  165.58   15.60
   4  -3  11  158.48   15.10
   4   3 -11  155.98   20.40
  -4  -3 -11  156.38   16.40
  -4   3  11  150.78   13.90
  -4   3  11  163.18   19.00
  -4  -3 -11  138.39   15.80
  -4   3  11  138.29   15.00
  -4  -4  11   36.60    4.80
  -4  -4  11   31.20    5.70
  -4  -4  11   34.50   12.50
   4  -4 -11   45.50    6.60
  -4   4 -11   41.30   14.30
   4  -4 -11   39.50    7.60
  -4   4 -11   41.20    7.30
   4  -4 -11   43.80   10.10
  -4  -4 -11   59.29    9.60
   4   4 -11   46.40   14.30
   4  -4  11   56.99    8.60
  -4   4  11   39.40    5.90
  -4   4  11   49.60   11.20
  -4  -4 -11   59.29    9.40
   4  -5 -11   23.40    6.20
  -4   5 -11   18.40    5.70
  -4   5 -11   -6.50   12.20
   4  -5 -11   22.10    9.90
  -4  -5  11   18.50   11.20
   4  -5 -11   24.70    7.20
  -4  -5  11   23.70    4.60
   4  -5  11   17.60    7.50
   4   5 -11   31.50   15.60
  -4  -5 -11   18.20    8.40
  -4  -5 -11   14.00    8.10
  -4  -5 -11   42.10   21.90
   4  -6 -11   32.60   12.10
  -4   6 -11   29.10   19.50
  -4  -6  11   16.00    5.40
  -4  -6  11   24.30   13.30
   4  -6 -11   21.20    7.50
  -4  -6 -11   22.60    9.00
  -4  -6 -11   43.90    9.80
   4   6 -11   34.80   18.10
  -4   6  11   17.00   10.10
   4  -6  11   24.30    8.30
  -4  -6 -11   50.19   23.80
  -4  -7  11   17.40    6.40
   4  -7 -11   17.80    8.20
  -4   7 -11  -42.00   18.70
  -4  -7  11   16.80   13.70
   4  -7 -11   13.50   11.70
  -4   7 -11   34.90   31.90
  -4  -7 -11   14.60   10.10
  -4  -7 -11   11.60   10.60
  -4  -7 -11   43.00   27.90
  -4  -7 -11   24.30    9.90
   4   7 -11   22.00   19.50
   4  -7  11   21.30    9.30
  -4   8 -11   33.70   39.20
  -4  -8  11   25.20   15.80
  -4  -8  11   30.50    8.00
   4  -8 -11   27.60   10.10
   4  -8 -11   31.50   14.90
  -4   8 -11    2.20   21.90
   4  -8  11   13.40    9.30
  -4  -8 -11   41.10   13.90
  -4  -8 -11   75.29   36.50
   4   8 -11   51.19   25.10
  -4  -8 -11   32.50   12.10
   4  -9 -11   11.20   14.00
  -4   9 -11  -70.59   34.70
   4  -9 -11   12.50   11.00
  -4  -9  11   -2.50   16.90
  -4  -9 -11   11.10   10.80
   4   9 -11   17.20   25.20
  -4  -9 -11  -47.10   32.00
   4  -9  11   -2.70   10.90
  -5   0 -11    5.00    8.10
   5   0 -11    0.00    5.80
  -5   0 -11    5.30    6.00
  -5   0  11  -13.30   11.10
   5  -1 -11  468.75   36.90
  -5   1 -11  450.25   39.20
   5  -1 -11  480.35   39.90
  -5   1 -11  462.85   39.90
  -5  -1  11  441.56   45.80
   5  -1  11  417.66   39.70
  -5  -1 -11  485.45   39.80
   5   1 -11  470.45   39.20
  -5  -1 -11  436.36   39.40
  -5   2 -11    8.10    6.20
   5  -2 -11   13.00    3.40
  -5  -2  11  -23.50   10.60
  -5   2 -11    8.80    8.90
   5  -2 -11   17.30    7.70
  -5  -2 -11   -0.70    7.10
  -5   2  11   12.50   11.40
   5  -2  11    5.20    6.10
   5   2 -11    9.30    9.60
  -5  -2 -11    6.80    6.90
  -5   3 -11 1117.39   91.89
  -5  -3  11 1065.69   94.89
  -5   3 -11 1151.68   90.09
   5  -3 -11 1142.19   91.49
   5  -3 -11 1075.89   88.49
   5  -3  11 1136.09   89.59
  -5  -3 -11 1186.68   91.19
  -5  -3 -11  958.20   89.89
   5   3 -11 1162.48   95.29
  -5  -3 -11 1085.49   90.49
  -5   3  11 1274.27   94.09
  -5   3  11 1026.50   89.29
   5  -4 -11   10.10    4.90
  -5  -4  11    7.20    2.50
   5  -4 -11   13.10    8.90
  -5  -4  11    2.20   11.20
  -5   4 -11    8.40    5.90
  -5   4 -11   10.70   12.40
  -5   4  11   18.90   11.70
  -5  -4 -11    5.40    7.00
   5  -4  11   17.80    7.70
  -5   4  11    8.60    5.40
  -5  -4 -11   22.20    9.20
   5   4 -11   17.40   13.70
  -5  -4 -11   10.70    8.00
   5  -5 -11   79.79   14.30
   5  -5 -11   77.79    9.80
  -5   5 -11   48.00   17.80
  -5   5 -11   74.79   10.20
  -5  -5  11   69.39    7.90
  -5  -5  11   67.29   16.30
  -5  -5 -11   87.29   13.60
   5  -5  11   69.19   11.60
  -5  -5 -11   70.99   12.80
  -5  -5 -11   65.89   12.50
   5   5 -11   70.99   20.30
   5  -6 -11    9.50    7.10
   5  -6 -11    9.50   10.90
  -5   6 -11  -15.40   14.10
  -5  -6  11    8.50   12.80
  -5  -6 -11   -8.00    9.10
   5   6 -11   16.90   19.60
  -5  -6 -11   -1.40    9.20
  -5  -6 -11   16.80   21.20
   5  -6  11    8.80    7.60
  -5  -6 -11   -3.00    9.90
  -5   7 -11  377.16   45.00
   5  -7 -11  317.87   35.20
  -5  -7  11  323.07   39.40
   5  -7 -11  307.77   30.00
   5   7 -11  404.86   45.70
   5  -7  11  318.57   30.40
  -5  -7 -11  333.67   34.70
  -5  -7 -11  388.86   32.90
  -5  -7 -11  325.87   48.20
  -5  -7 -11  326.77   31.40
  -5  -7 -11  337.27   32.90
   5  -8 -11   11.60    9.30
  -5  -8  11    0.20   15.80
   5  -8 -11    8.30   13.30
  -5   8 -11   34.70   43.60
  -5  -8 -11    6.80   14.10
  -5  -8 -11   15.70   34.30
  -5  -8 -11   -5.40   10.10
   5  -8  11    6.70   10.60
  -5  -8 -11    3.60   12.40
   5   8 -11   27.20   24.20
   5  -9 -11  119.49   16.70
  -5   9 -11   59.09   46.70
  -5  -9  11  103.39   25.50
   5  -9 -11  100.59   22.70
  -5  -9 -11  131.89   45.80
   5  -9  11  100.19   15.80
   5   9 -11  124.59   35.30
  -5  -9 -11   94.89   18.00
  -5  -9 -11   77.89   21.80
  -6   0 -11   29.50    9.60
  -6   0 -11   14.70    7.90
  -6   0  11  -14.70   13.60
   6  -1 -11   93.89   12.00
  -6   1 -11  149.19   15.80
   6  -1 -11  135.99   16.10
  -6   1 -11  144.19   16.70
  -6  -1  11  135.89   25.70
   6   1 -11  145.59   16.40
  -6  -1 -11  143.49   16.30
  -6   1  11  103.59   22.40
  -6  -1 -11  135.79   16.30
   6  -2 -11   11.80    9.60
   6  -2 -11    6.00    4.20
  -6   2 -11    3.90    6.60
  -6   2 -11   11.00   10.00
  -6  -2  11  -11.90   12.20
   6  -2  11    3.80    7.90
  -6  -2 -11   10.60    8.10
  -6  -2 -11    6.60    3.70
  -6   2  11   14.60    7.60
  -6   2  11   40.60   15.80
  -6  -2 -11   12.40    9.80
   6  -3 -11   45.30    7.10
   6  -3 -11   63.09   12.70
  -6  -3  11   17.20   15.00
  -6   3 -11   42.10   12.00
  -6   3 -11   43.70    9.10
  -6  -3 -11   51.29   12.20
  -6   3  11   61.19   10.10
  -6   3  11   58.39   14.90
   6   3 -11   59.09   16.70
  -6  -3 -11   49.99   11.20
   6  -3  11   45.60    9.40
  -6  -4  11    8.50   15.40
   6  -4 -11   15.30    5.60
  -6   4 -11    3.40    6.30
   6  -4 -11   24.00   10.30
  -6   4 -11   11.00   12.90
   6  -4  11   19.90    8.50
  -6  -4 -11   -1.30    7.70
  -6  -4 -11   24.20    9.80
  -6   4  11   25.20   12.30
  -6  -4 -11   23.30    9.50
  -6   4  11    4.80    6.90
   6   4 -11   32.70   17.40
  -6  -5  11   46.20   17.20
  -6   5 -11   38.40   18.10
   6  -5 -11   54.49    8.60
   6  -5 -11   51.19   13.80
  -6   5 -11   47.60    9.50
   6   5 -11   63.99   20.50
   6  -5  11   57.79   11.20
  -6  -5 -11   52.29   13.30
  -6  -5 -11   42.40   11.80
  -6  -5 -11   46.40   12.00
  -6   6 -11   27.00   16.10
   6  -6 -11   29.40    8.40
  -6  -6  11   22.40   16.00
   6  -6 -11   45.50   14.90
  -6  -6 -11   94.29   27.10
   6  -6  11   22.70    9.50
  -6  -6 -11   56.39   13.40
  -6  -6 -11   29.90   13.50
   6   6 -11   42.90   21.00
  -6  -6 -11   40.30   11.90
   6  -7 -11   18.20    8.60
  -6   7 -11   20.10   22.40
   6  -7 -11    3.30   14.60
  -6  -7  11   15.50   19.00
  -6  -7 -11   49.50   27.60
   6  -7  11   12.10    9.20
  -6  -7 -11    1.20   10.40
   6   7 -11   13.40   21.70
  -6  -7 -11    1.50   12.30
  -6  -7 -11    8.10   12.00
   6  -8 -11   12.60   14.60
   6  -8 -11   21.10   10.40
  -6  -8  11   18.10   19.20
   6  -8  11   25.60   12.60
  -6  -8 -11   17.20   14.20
  -6  -8 -11   21.30   11.60
  -6  -8 -11   13.00   13.60
   6   8 -11   19.60   24.80
  -6  -8 -11   63.39   33.80
  -7   0 -11    7.40    9.00
   7   0 -11    1.80    8.90
  -7   0 -11   -4.60    9.60
  -7   1 -11  469.85   38.60
  -7   1 -11  420.26   38.60
  -7  -1  11  434.26   48.90
   7  -1 -11  423.86   38.50
  -7  -1 -11  425.96   38.40
  -7   1  11  318.67   43.40
  -7   1  11  421.36   38.40
  -7  -1 -11  436.46   38.90
  -7   2 -11   42.30   10.60
   7  -2 -11   38.30   11.30
  -7   2 -11   37.70   12.40
   7  -2 -11   39.80   12.10
  -7  -2  11   27.50   20.00
  -7  -2 -11   52.19   13.70
  -7   2  11   43.40   16.90
  -7  -2 -11   38.40   11.30
  -7   2  11   34.00   10.90
   7  -2  11   40.40   11.50
  -7   3 -11  150.08   19.30
   7  -3 -11  129.09   14.10
   7  -3 -11  144.69   19.10
  -7   3 -11  128.39   17.00
  -7  -3  11   84.89   24.00
  -7  -3 -11  157.98   19.30
  -7  -3 -11  127.29   18.40
  -7   3  11  154.28   17.60
  -7   3  11  190.28   24.00
   7  -3  11  179.08   19.00
   7  -4 -11   43.20    7.90
  -7   4 -11   25.90    9.80
  -7   4 -11   34.60   14.60
  -7  -4  11    5.50   16.20
   7  -4 -11   36.00   13.00
  -7   4  11   36.60   15.90
  -7  -4 -11   31.50   10.00
   7   4 -11   58.49   19.60
   7  -4  11   39.30   11.10
  -7   4  11   46.80   16.70
  -7  -4 -11   30.60   13.50
  -7   5 -11  329.37   31.20
   7  -5 -11  330.47   34.20
  -7   5 -11  295.27   37.00
  -7  -5  11  266.97   38.90
   7  -5 -11  315.87   29.10
   7   5 -11  358.96   42.00
  -7  -5 -11  356.56   33.40
  -7  -5 -11  385.16   33.70
   7  -5  11  335.17   31.10
   7  -6 -11    7.60    8.20
  -7  -6  11   15.30   21.10
   7  -6 -11   24.50   14.50
  -7   6 -11   32.40   17.60
  -7  -6 -11   17.30   13.70
   7   6 -11   49.90   25.40
  -7  -6 -11    5.10   11.60
   7  -6  11   35.70   11.40
  -7   7 -11   65.09   23.20
   7  -7 -11   62.49   11.80
   7  -7 -11   60.59   18.30
  -7  -7  11   44.40   21.90
  -7  -7 -11   52.49   16.10
   7   7 -11   84.09   28.90
   7  -7  11   67.69   13.60
  -7  -7 -11   42.20   14.70
  -7  -7 -11   33.70   12.90
  -7  -7 -11  134.69   33.70
  -8   0 -11   -1.20   10.60
  -8   0  11    2.20   12.30
  -8   0  11  -44.80   16.60
   8   0 -11    4.20   10.40
  -8   0 -11    0.60   11.40
   8  -1 -11   28.80   12.10
  -8   1 -11   28.50   12.00
  -8   1 -11   42.80   15.40
  -8  -1  11  -17.40   21.00
  -8  -1 -11   27.80   14.10
  -8  -1 -11   33.30   10.60
  -8   1  11    5.40   20.30
  -8   1  11   40.60   13.90
   8  -2 -11   25.50   13.50
  -8  -2  11   16.20   25.30
  -8   2 -11   44.00   15.30
  -8   2 -11   30.00   11.20
  -8  -2 -11   39.90   12.80
  -8   2  11   19.10   11.90
  -8   2  11   35.30   17.70
  -8  -2 -11   70.99   15.80
  -8   3 -11   21.00   10.90
  -8  -3  11    5.30   22.60
  -8   3 -11   48.20   16.60
   8  -3 -11   32.10   13.70
  -8  -3 -11   35.30   13.80
  -8   3  11   38.80   12.70
  -8   3  11   59.49   18.20
   8  -3  11   27.10   12.60
  -8  -3 -11   40.20   13.50
  -8   4 -11   17.90   16.10
  -8   4 -11   20.30   11.10
   8  -4 -11   18.30   13.10
  -8  -4  11    4.40   16.50
   8  -4  11   30.00   11.40
  -8  -4 -11   31.60   13.20
  -8  -4 -11   26.10   12.70
  -8   4  11   29.80   16.00
  -8   5 -11   15.60   16.90
  -8   5 -11    1.60   10.30
  -8  -5  11    3.20   19.40
   8  -5 -11   14.70   13.90
  -8  -5 -11    1.50   12.10
   8  -5  11   17.80   11.40
  -8  -5 -11    1.90   14.20
  -8  -6  11   24.40   20.80
  -8   6 -11   32.70   19.40
   8  -6 -11   14.80   14.70
  -8  -6 -11   10.20   13.00
   8  -6  11   14.10   12.20
   8   6 -11   21.70   23.70
  -8  -6 -11    4.20   12.90
  -9   0  11  -41.00   21.80
  -9   0 -11  -14.60   11.30
  -9   0  11   -5.40   14.20
  -9   0 -11    0.70   13.10
  -9   1 -11  165.38   24.70
  -9   1 -11  169.98   23.40
   9  -1 -11  189.38   25.30
  -9  -1  11  188.58   27.90
  -9   1  11  167.68   25.00
  -9  -1 -11  209.88   26.80
  -9  -1 -11  174.38   24.20
  -9   1  11  180.68   34.20
  -9   2 -11   14.80   16.40
  -9   2 -11    5.00   11.60
   9  -2 -11   14.90   14.90
  -9  -2  11    3.60   16.00
  -9  -2  11  -32.90   22.60
  -9  -2 -11    8.80   15.70
  -9   2  11   17.40   21.00
  -9  -2 -11    7.30   12.80
  -9   2  11    6.20   13.90
   9  -3 -11  120.09   22.50
  -9   3 -11  109.99   18.40
  -9   3 -11  156.88   24.80
  -9  -3  11  123.49   36.00
  -9   3  11  135.49   22.80
  -9  -3 -11  132.29   23.00
   9  -3  11  141.69   20.50
  -9   3  11  115.39   25.00
  -9  -3 -11   99.59   19.90
  -9  -4  11   49.80   27.00
  -9   4 -11   42.10   19.00
  -9   4 -11   22.40   13.60
   9  -4 -11   42.60   16.60
  -9  -4 -11   13.70   14.30
   9  -4  11   46.40   14.10
  -9   4  11   61.59   22.10
  -9  -4 -11   45.90   18.00
   9  -5 -11   78.29   19.90
  -9  -5  11   71.79   24.10
  -9   5 -11  108.59   24.80
  -9  -5 -11   84.09   20.70
  -9  -5 -11   78.79   19.20
   9  -5  11   97.89   16.70
 -10   0  11   23.50   17.00
 -10   0 -11   42.90   15.90
 -10   0  11    4.30   25.70
 -10   0 -11   55.59   17.30
 -10  -1  11    7.20   18.30
 -10   1 -11   12.80   18.60
 -10   1 -11  -10.50   12.90
 -10   1  11    3.80   24.00
 -10  -1 -11    6.30   17.20
 -10  -1 -11  -13.40   13.20
 -10   1  11    8.80   17.20
 -10   2 -11   -1.50   12.70
  10  -2 -11   24.10   15.60
 -10   2 -11   32.40   18.30
 -10  -2  11   12.60   19.70
 -10   2  11    7.60   15.40
 -10   2  11    3.00   18.70
 -10  -2 -11   -8.00   13.80
 -10  -2 -11   11.00   15.60
 -10  -3  11  -49.50   28.20
  10  -3 -11   12.20   15.60
 -10   3 -11   13.40   18.80
 -10  -3  11   11.70   21.90
 -10   3  11   11.70   22.00
 -10  -3 -11   -6.30   15.10
   0   0 -12 3134.79  271.17
   0   0 -12 3671.63  271.77
   0   0 -12 3442.46  272.27
   0   0 -12 3546.45  271.67
   0   0  12 3242.08  271.47
   0   1 -12    0.10    5.30
   0   1  12   -5.00    5.10
   0   1 -12   -4.60    5.60
   0  -1 -12    3.70    3.90
   0  -1 -12   -0.30    5.60
   0   1  12  -12.60    3.90
   0  -1  12   -5.00    4.50
   0   1 -12   -0.40    4.80
   0  -1 -12   -1.90    6.10
   0   1 -12   -3.10    6.80
   0   1 -12    7.50    8.80
   0  -1 -12   -0.50    4.80
   0   2 -12   51.49   13.50
   0  -2 -12  103.39   14.50
   0   2 -12  110.79   19.90
   0  -2 -12   91.29   14.10
   0  -2 -12   93.69    8.20
   0  -2  12   93.39   10.40
   0  -2  12   81.09    8.40
   0  -2 -12   63.49   10.60
   0   2  12   77.39    9.30
   0   2 -12  107.49   10.10
   0   2  12   71.69   11.10
   0   3 -12   -5.20    2.80
   0   3 -12  -16.50    8.60
   0  -3  12   -0.60    3.00
   0  -3 -12   -2.90    6.80
   0  -3  12    2.40    5.40
   0  -3 -12   -4.00    3.40
   0   3 -12    1.30    4.60
   0  -3 -12   -5.30    3.80
   0  -3 -12   -8.40    7.50
   0   3 -12    0.50   11.30
   0   3  12   -0.80    2.50
   0   4 -12  488.35   37.20
   0  -4 -12  370.96   41.70
   0  -4  12  391.76   38.10
   0  -4  12  503.35   38.90
   0  -4 -12  529.65   37.20
   0   4 -12  330.07   45.20
   0  -4  12  481.55   36.60
   0   4 -12  404.06   40.40
   0   5 -12    0.90    3.10
   0  -5  12   -3.20    4.50
   0  -5 -12   -1.70    5.40
   0  -5 -12    8.60    2.90
   0  -5  12   -0.40    4.40
   0  -5  12   -1.90    6.20
   0   5  12   -0.50    4.70
   0  -5 -12  -17.20   10.00
   0   5 -12  -20.10   13.50
   0  -5 -12   -2.60   10.10
   0  -6  12  496.75   39.30
   0  -6 -12  474.55   39.70
   0  -6  12  470.85   41.90
   0   6  12  436.46   40.10
   0  -6 -12  507.45   44.90
   0  -7 -12   -5.50   13.30
   0  -7  12    2.70   10.10
   0  -7 -12   -7.90    7.40
   0   7 -12  -14.00   19.80
   0  -7  12   -6.50    5.50
   0   7  12   -3.80    7.80
   0  -8  12   48.50   10.20
   0  -8 -12   58.69   18.50
   0   8 -12   23.70   25.10
   0  -8 -12   45.10   11.00
   0  -8  12   37.90   14.10
   0   9 -12   27.30   27.30
   0  -9  12   -7.30   15.90
   0  -9 -12    1.20   15.30
   0  -9  12   -1.90    9.10
   0  -9 -12    3.80   10.20
   0 -10  12  220.28   23.70
   0  10 -12  250.37   50.29
   0 -10 -12  204.88   25.20
   0 -10 -12  214.48   34.50
   0 -10  12  257.67   35.30
  -1   0 -12   -5.10    3.90
   1   0 -12   -6.20    4.90
   1   0 -12   -0.50    5.00
  -1   0 -12    0.10    4.80
   1   0  12    1.30    5.50
   1   0 -12    0.90    4.50
   1   0 -12   13.90    3.30
   1   0 -12    1.00    4.20
  -1   0  12   -3.80    3.90
  -1   0  12   -0.90    6.30
  -1   0 -12   -6.20    5.60
  -1   1 -12   -6.20    5.90
   1  -1 -12    8.40    5.30
   1   1  12   10.80    4.40
  -1   1 -12    5.60    5.20
   1  -1 -12   -6.80    6.00
  -1  -1  12   13.40    4.70
  -1  -1  12   11.00    6.90
  -1   1 -12   14.10    4.40
   1  -1 -12    3.00    5.70
   1  -1 -12   16.90    3.30
   1  -1  12   10.80    4.70
  -1   1  12   16.10    3.70
  -1  -1 -12   14.10    7.40
   1   1 -12   15.20    5.50
  -1  -1 -12    9.30    5.80
  -1  -1 -12    6.10    4.70
   1  -1  12   12.40    4.80
  -1  -1 -12   10.50    4.00
   1   1 -12   14.40    6.70
   1   1 -12    9.20    3.50
  -1   1  12   -1.20    6.70
   1   1 -12   11.90    4.00
   1   1 -12    4.70    7.30
  -1   2 -12   56.39   12.50
   1  -2 -12   66.09    8.10
  -1  -2  12   50.39    6.00
   1   2  12   48.90    6.60
  -1  -2  12   61.09    9.60
   1  -2 -12   36.70   10.20
  -1  -2 -12   57.69    7.60
  -1  -2 -12   41.60    7.20
   1   2 -12   35.70   13.00
  -1   2  12   67.49   11.10
  -1  -2 -12   53.69   12.70
   1   2 -12   58.39    8.00
   1  -2  12   56.59    8.30
   1   2 -12   67.49    5.80
  -1   2  12   68.29    7.70
   1   2 -12   53.79    5.90
  -1  -2 -12   63.19    7.60
  -1  -2 -12   48.40    9.40
   1  -2  12   64.09    7.10
  -1  -3  12   35.80    8.50
   1  -3 -12   23.70    9.80
  -1   3 -12   53.69   13.20
   1  -3 -12   11.70    8.50
  -1  -3  12   44.10    5.30
   1  -3 -12   44.40    5.70
   1   3  12   42.10    5.90
  -1   3 -12   40.00    9.00
  -1   3 -12   29.30    4.90
   1  -3  12   47.20    7.50
   1   3 -12   37.20    6.20
   1  -3  12   42.20    5.80
  -1   3  12   37.40    4.70
   1   3 -12   19.90   12.50
  -1  -3 -12   36.60    8.50
  -1   3  12   48.20    8.60
  -1  -3 -12   46.20    6.40
  -1  -3 -12   43.60    7.50
  -1  -3 -12   53.59   13.40
  -1  -4  12   10.10    3.70
   1  -4 -12    6.70    4.00
  -1  -4  12    6.10    6.30
   1  -4 -12  -13.70    6.70
  -1   4 -12    1.80   15.80
  -1   4 -12  -14.60    5.20
  -1   4 -12    5.70    3.10
  -1   4 -12  -15.80    9.70
   1  -4 -12    3.40    8.60
   1   4 -12    8.80    3.80
  -1  -4 -12   14.60   11.80
  -1  -4 -12    5.00    6.20
   1  -4  12    3.00    3.90
   1   4 -12    4.00   12.40
  -1  -4 -12    3.90    6.50
  -1  -4 -12    5.40    4.20
   1  -4  12    6.00    5.20
   1  -4  12    3.90    4.20
   1  -5 -12   34.90   10.90
  -1   5 -12   65.09    7.40
   1  -5 -12   53.39   13.50
  -1  -5  12   54.89    7.10
  -1  -5  12   53.49   10.50
  -1   5 -12   16.60   13.10
   1  -5 -12   52.79    7.60
  -1   5 -12   32.80    7.20
  -1   5 -12   44.20   21.60
  -1   5  12   59.39    7.80
  -1  -5 -12   81.99   18.60
   1  -5  12   49.00    6.90
  -1  -5 -12   61.19    8.50
  -1  -5 -12   31.10    9.80
   1  -5  12   66.99    8.20
   1   5 -12   41.80   17.90
  -1  -5 -12   58.49    7.10
   1  -5  12   47.20    9.40
  -1  -6  12   -0.40    8.00
  -1  -6  12   -0.50    5.10
   1   6  12   -3.80    6.80
   1  -6 -12    2.50    7.50
  -1   6 -12    1.80   13.10
  -1   6 -12  -28.70   16.60
   1  -6 -12    2.40   10.00
   1  -6 -12    0.60    5.40
  -1  -6 -12   -3.50   14.00
  -1  -6 -12   -6.50    6.60
  -1  -6 -12   -7.80    8.80
   1  -6  12    6.80    8.80
  -1   6  12   -2.70    5.90
  -1  -6 -12    7.10    4.50
   1   6 -12   -5.40   15.50
   1  -6  12    0.00    5.70
   1   7  12   55.09   12.00
   1  -7 -12   62.79   10.30
  -1  -7  12   61.19   13.60
   1  -7 -12   51.69   10.70
   1  -7 -12   65.79   17.70
  -1  -7  12   58.79    9.10
  -1   7  12   50.79   10.60
  -1  -7 -12   53.99   15.20
  -1  -7 -12   59.69   10.80
   1   7 -12   41.00   21.90
   1  -7  12   51.49    9.50
   1  -7  12   47.00   12.60
  -1  -7 -12   19.80   18.50
  -1  -8  12    1.20   12.10
   1  -8 -12    7.20   15.20
  -1  -8  12   -3.70    7.60
   1  -8 -12    7.30    8.80
  -1   8 -12  -21.70   24.40
   1   8 -12    7.30   22.10
   1  -8  12    4.50    7.80
  -1  -8 -12  -24.70   18.10
   1  -8  12   11.30   13.30
  -1  -8 -12   -3.80    9.10
  -1   9 -12   23.70   29.10
  -1  -9  12   31.40   16.40
   1  -9 -12   27.00   15.30
  -1  -9  12   32.20    9.70
   1  -9 -12   37.20   11.40
  -1  -9 -12    8.80   18.40
   1  -9  12   20.60    9.90
   1  -9  12   24.60   15.50
   1   9 -12   57.79   27.70
  -1  -9 -12   28.90   11.70
  -1  10 -12    7.00   33.60
  -1 -10  12    5.80   10.30
   1 -10 -12    7.10   12.00
  -1 -10  12   -7.00   16.80
   1 -10 -12   -1.10   16.40
   1 -10  12    0.70   11.20
   1  10 -12   22.30   28.00
   1 -10  12   -8.50   20.00
  -1 -10 -12   -7.80   11.50
  -1 -10 -12   -4.90   20.60
   2   0 -12   96.89   11.00
  -2   0 -12   96.19   10.90
   2   0  12   75.69   11.80
  -2   0  12  131.99   17.00
  -2   0  12  114.59   11.30
  -2   0 -12   94.69   12.10
  -2   0 -12  117.09   10.10
   2   0 -12  118.79   12.20
   2   0 -12  111.79   11.00
  -2   1 -12  125.19   15.30
   2  -1 -12  140.39   14.10
  -2  -1  12  137.79   12.40
   2  -1 -12  144.09   13.90
  -2   1 -12  123.99   13.30
  -2   1  12  124.89   12.30
  -2  -1 -12  113.39   13.60
   2   1 -12  137.29   13.30
   2   1 -12  143.69   15.60
  -2  -1 -12  147.29   13.50
   2   1 -12  131.29   11.40
  -2   1  12  126.89   12.10
   2   1 -12  146.49   12.40
   2  -1  12  133.59   12.50
   2  -1  12   89.79   12.50
  -2   2 -12 1282.67  101.59
   2  -2 -12 1167.18  101.89
  -2  -2  12 1318.97   99.89
  -2  -2  12 1295.37  103.29
  -2  -2  12 1260.67  100.29
   2  -2 -12 1228.38  100.09
   2  -2 -12 1342.97  102.89
   2  -2  12 1310.97  100.79
  -2  -2 -12 1294.97  101.99
   2   2 -12 1226.38   99.69
   2   2 -12 1222.78  100.09
   2   2 -12 1237.58  101.29
   2   2 -12 1229.88  104.39
  -2  -2 -12 1222.28  100.59
  -2   2  12 1314.67  103.99
  -2  -2 -12 1213.98  100.89
   2  -2  12 1291.37  100.79
  -2  -3  12   39.00    4.30
  -2   3 -12   13.20   10.10
  -2   3 -12   28.50    6.80
   2  -3 -12   32.20    7.30
  -2  -3  12   28.00    8.60
   2  -3 -12   40.50    9.20
  -2  -3  12   21.80    3.60
   2  -3 -12   40.10    5.40
  -2   3  12   31.10    9.30
   2   3 -12   29.60    5.60
  -2  -3 -12   17.50   11.80
   2  -3  12   29.60    6.10
  -2  -3 -12   27.60    6.10
   2   3 -12   31.80    4.00
   2   3 -12   25.10   12.00
  -2  -3 -12   30.90    6.60
   2  -3  12   40.40    6.50
   2  -4 -12  301.47   26.80
   2  -4 -12  285.87   24.80
  -2   4 -12  331.57   32.00
  -2  -4  12  288.47   24.30
   2  -4 -12  317.87   28.90
  -2  -4  12  301.77   27.90
   2   4 -12  282.27   32.30
   2  -4  12  277.17   24.90
  -2  -4 -12  312.47   25.20
  -2  -4 -12  276.07   33.40
  -2  -4 -12  299.87   27.10
  -2   4  12  285.67   27.80
  -2   4  12  284.37   24.00
  -2   5 -12   -5.80   14.50
   2  -5 -12    5.50    9.10
  -2   5 -12  -15.40    6.10
  -2  -5  12   -2.50    3.90
  -2   5 -12   30.40   20.70
  -2  -5  12    3.50    8.80
   2  -5 -12    3.30    5.20
   2  -5 -12    8.90    6.50
  -2  -5 -12   -0.10    6.80
  -2  -5 -12    3.10    5.00
  -2  -5 -12   18.10   15.60
   2   5 -12    2.10   13.50
  -2   5  12    5.30    4.20
   2  -5  12    1.50    5.50
  -2   6 -12  191.48   39.00
   2  -6 -12  150.58   16.00
   2  -6 -12  180.48   21.20
  -2  -6  12  170.38   15.30
  -2  -6  12  163.68   20.10
   2  -6 -12  174.68   17.30
  -2   6  12  152.58   16.30
  -2  -6 -12  138.59   15.40
  -2  -6 -12  178.88   17.10
   2  -6  12  158.88   16.10
   2   6 -12  171.68   28.10
  -2  -6 -12  251.57   36.60
  -2  -6 -12  132.09   18.50
  -2   7 -12   -9.90   28.80
   2   7  12   42.50   12.50
   2  -7 -12   52.19   14.60
  -2  -7  12   49.70    8.30
   2  -7 -12   42.80    8.90
  -2  -7  12   39.10   13.40
   2  -7 -12   41.10    8.60
  -2   7 -12   26.10   16.70
   2   7 -12   53.79   22.10
   2  -7  12   50.09    9.80
  -2  -7 -12   26.20   11.00
  -2  -7 -12   37.70   10.30
  -2  -7 -12   46.20   25.90
   2  -8 -12  304.87   28.60
   2  -8 -12  336.67   34.20
   2   8  12  297.17   31.70
  -2  -8  12  318.67   27.60
  -2  -8  12  316.57   33.90
  -2  -8 -12  330.67   29.40
   2  -8  12  320.37   28.50
  -2  -8 -12  263.47   34.40
   2   8 -12  317.97   44.40
  -2  -8 -12  262.37   46.00
   2  -9 -12   26.70   17.50
  -2  -9  12    7.50   15.50
   2  -9 -12   16.50   10.20
  -2   9 -12  -48.70   31.80
  -2  -9  12    9.50    8.80
  -2  -9 -12    3.00   11.80
  -2  -9 -12  -51.59   22.00
   2   9 -12   34.30   26.70
   2  -9  12    5.50   10.20
  -2  10 -12    6.30   35.00
   2 -10 -12   65.29   21.50
   2 -10 -12   61.99   13.00
  -2 -10  12   35.60   11.70
  -2 -10  12   35.20   22.80
   2  10 -12   66.59   32.50
  -2 -10 -12   21.30   26.30
   2 -10  12   41.90   13.20
   2 -10  12   42.30   20.20
  -2 -10 -12   55.89   14.00
   3   0 -12  188.68   15.80
  -3   0 -12  202.88   18.60
  -3   0  12  211.38   24.10
   3   0 -12  210.48   19.60
   3   0 -12  193.28   18.10
  -3   0 -12  188.38   18.40
   3   0 -12  194.08   18.40
   3  -1 -12    4.30    4.60
  -3   1 -12   -0.50    5.90
   3  -1 -12   -0.60    2.10
  -3   1 -12    0.10    4.40
  -3  -1  12  -13.80    7.60
   3  -1 -12    8.80    5.40
   3   1 -12    4.30    4.10
  -3  -1 -12    6.90    5.30
   3   1 -12    7.70    4.70
  -3  -1 -12    1.50    5.10
  -3   1  12  -15.90    8.00
   3   1 -12    7.90    7.00
  -3   1  12   -0.10    3.70
   3  -1  12   -1.80    2.60
   3  -1  12    6.40    5.70
  -3  -2  12   56.19    6.60
   3  -2 -12   63.29    9.80
  -3  -2  12   40.40   11.30
   3  -2 -12   49.90    5.80
  -3   2 -12   56.59   10.90
   3  -2 -12   55.09    8.00
  -3   2 -12   58.69    8.40
  -3  -2 -12   52.39    8.90
   3   2 -12   47.40    4.70
  -3  -2 -12   73.49    9.30
  -3   2  12   50.59    6.80
  -3   2  12   65.09   13.10
   3   2 -12   50.19    7.80
   3   2 -12   51.99    6.80
   3  -2  12   61.49    8.40
  -3   2  12   55.69    6.80
   3  -2  12   55.69    6.70
   3   2 -12   58.79   12.30
  -3  -2 -12   46.70    6.10
   3  -3 -12   31.70    5.20
  -3   3 -12   31.80    6.50
   3  -3 -12   39.80    9.10
   3  -3 -12   36.10    7.10
  -3  -3  12   29.30   10.20
  -3   3 -12   18.40   10.20
  -3  -3  12   29.90    4.60
  -3  -3  12   44.30    4.40
  -3   3  12   42.10    5.50
  -3  -3 -12   34.20    7.90
  -3   3  12   49.90   11.20
  -3  -3 -12   37.90    7.30
   3  -3  12   32.50    6.80
  -3   3  12   34.60    5.30
   3   3 -12   36.50    4.00
   3   3 -12   34.70   12.20
  -3  -3 -12   28.30    5.40
  -3  -4  12   55.19    5.70
  -3   4 -12   16.50   12.10
  -3  -4  12   54.69   12.70
  -3  -4  12   58.69    6.30
   3  -4 -12   72.89   12.80
   3  -4 -12   60.19    9.00
  -3   4 -12   49.80    8.40
   3  -4 -12   67.09    7.90
  -3  -4 -12   51.79    9.90
  -3  -4 -12   55.99    9.20
  -3   4  12   64.09   12.20
  -3  -4 -12   56.49   17.90
   3   4 -12   58.39   15.90
   3  -4  12   59.59    8.40
   3  -5 -12   42.90    8.20
  -3   5 -12   41.50   16.00
  -3  -5  12   36.70   11.20
  -3  -5  12   42.10    5.90
   3  -5 -12   59.79   11.60
  -3   5 -12   18.20    6.80
   3  -5 -12   44.80    7.30
   3  -5  12   48.30    8.10
   3   5 -12   53.79   17.00
  -3  -5 -12   76.89   21.90
  -3   5  12   39.30    7.90
  -3   6 -12   37.90   25.40
   3  -6 -12   13.50    6.10
   3  -6 -12   21.70    6.80
   3  -6 -12   21.20   11.40
  -3  -6  12   18.50   10.70
  -3   6 -12  -10.50   17.60
  -3  -6  12   12.20    5.30
  -3  -6 -12   22.80   21.30
  -3   6  12   13.00    7.90
   3  -6  12   24.90    7.70
  -3  -6 -12   17.20    8.10
  -3  -6 -12   18.80   10.10
   3   6 -12   11.70   16.70
  -3  -6 -12   18.80    7.50
  -3   7 -12   45.00   31.70
   3  -7 -12   13.30    6.60
   3  -7 -12   20.90   12.00
  -3  -7  12   12.90   12.30
   3  -7 -12   18.20    8.00
  -3  -7  12   18.20    6.50
  -3  -7 -12   17.50    9.70
  -3  -7 -12   37.00   28.90
   3  -7  12   23.50    8.80
  -3  -7 -12   25.40   11.90
   3   7 -12   31.00   20.00
  -3  -7 -12   23.60    8.40
   3  -8 -12   -0.30   14.00
  -3   8 -12  -13.10   18.30
   3  -8 -12    2.50    8.90
  -3   8 -12   -8.70   30.20
  -3  -8  12    4.70   15.50
  -3  -8  12    5.00    7.30
  -3  -8 -12   -5.90   10.10
   3   8 -12   21.10   23.00
  -3  -8 -12   11.40   11.70
  -3  -8 -12  -10.50   25.90
   3  -8  12    9.00    9.40
   3  -9 -12   35.20   17.80
   3  -9 -12   24.90   11.30
  -3  -9  12   28.00   18.00
  -3  -9  12   25.70    9.10
  -3  -9 -12   30.30   11.70
  -3  -9 -12  -55.79   24.20
   3  -9  12   36.50   11.90
   3   9 -12   39.60   26.40
   3 -10 -12   10.90   12.20
  -3 -10 -12    6.00   11.80
  -4   0 -12  624.74   52.99
  -4   0  12  684.73   59.59
  -4   0 -12  621.14   53.19
   4   0 -12  621.74   52.99
   4   0 -12  659.23   53.09
  -4   1 -12  237.38   21.40
   4  -1 -12  221.48   18.80
  -4   1 -12  215.78   21.90
   4  -1 -12  239.08   21.60
   4  -1 -12  227.68   21.60
  -4  -1  12  160.38   25.70
   4  -1  12  205.88   21.30
  -4  -1 -12  267.17   22.20
   4   1 -12  254.37   21.30
  -4  -1 -12  244.68   21.90
   4   1 -12  248.78   24.70
   4  -2 -12  364.16   31.20
  -4   2 -12  365.66   32.00
  -4   2 -12  329.07   29.90
   4  -2 -12  322.37   28.20
   4  -2 -12  352.76   30.50
  -4  -2 -12  344.57   28.20
   4  -2  12  337.07   29.60
  -4  -2 -12  347.57   30.90
  -4  -2 -12  337.77   28.70
  -4  -2 -12  338.37   30.50
   4   2 -12  360.86   33.90
   4  -2  12  360.26   29.00
  -4   2  12  301.67   34.30
   4   2 -12  396.36   30.00
   4  -3 -12   60.19    6.70
   4  -3 -12   59.89    9.00
  -4  -3  12   44.00    6.70
  -4   3 -12   52.59    8.00
   4  -3 -12   54.89   10.60
  -4  -3  12   49.30    4.80
  -4  -3  12   46.60   13.20
  -4   3 -12   51.99   13.40
   4   3 -12   65.79   15.00
  -4  -3 -12   42.70    6.40
  -4  -3 -12   53.19    9.90
  -4   3  12   49.20    7.20
  -4  -3 -12   49.20    9.70
   4  -3  12   60.39    9.10
  -4   3  12   58.09   12.80
  -4   3  12   62.09    8.70
   4  -4 -12  442.96   38.40
  -4  -4  12  410.46   35.80
   4  -4 -12  457.75   40.20
  -4   4 -12  470.95   38.10
  -4  -4  12  471.05   36.80
  -4  -4  12  430.56   41.70
   4  -4 -12  414.66   36.70
   4   4 -12  460.15   44.70
  -4  -4 -12  462.75   38.40
  -4   4  12  466.05   36.50
  -4  -4 -12  418.66   39.10
  -4   4  12  449.56   41.40
   4  -4  12  462.35   37.90
  -4   5 -12   15.40    5.70
  -4  -5  12   18.50    4.30
  -4   5 -12  -15.10   12.80
   4  -5 -12   14.10    7.00
   4  -5 -12   11.60    5.90
  -4  -5  12   24.40   12.00
   4  -5 -12   25.90   10.70
   4   5 -12   44.40   18.20
   4  -5  12   14.10    7.30
  -4  -5 -12   25.40   18.50
  -4  -5 -12   18.50    8.70
  -4  -5 -12   25.20    8.60
  -4  -6  12  238.98   19.70
  -4  -6  12  233.18   27.00
   4  -6 -12  204.48   20.80
   4  -6 -12  229.48   26.30
  -4   6 -12  250.87   33.70
  -4  -6 -12  243.68   40.90
  -4  -6 -12  218.98   23.40
   4   6 -12  247.38   34.00
  -4  -6 -12  207.48   22.30
   4  -6  12  219.58   21.20
  -4  -7  12   31.40    7.20
   4  -7 -12   32.30   13.70
  -4   7 -12  -21.40   20.70
   4  -7 -12   27.10    8.70
  -4  -7  12   26.90   16.40
  -4   7 -12   39.80   31.70
   4  -7  12   30.80    9.10
  -4  -7 -12   29.50   11.30
  -4  -7 -12   29.50   10.30
   4   7 -12   49.20   23.10
  -4  -7 -12   65.29   30.60
  -4  -7 -12   19.50   10.60
  -4   8 -12  151.88   51.09
  -4  -8  12  128.29   24.60
   4  -8 -12  157.78   24.90
   4  -8 -12  155.88   18.30
   4  -8  12  126.29   17.70
  -4  -8 -12  137.39   21.80
  -4  -8 -12  179.88   20.70
  -4  -8 -12  231.38   45.70
   4   8 -12  179.38   38.60
   4  -9 -12   48.70   12.70
  -4   9 -12  -15.30   39.40
  -4  -9  12   36.90   21.70
   4  -9 -12   35.20   16.80
   4   9 -12   27.60   31.50
  -4  -9 -12   34.60   12.40
   4  -9  12   43.60   12.90
  -4  -9 -12    7.50   37.30
  -5   0  12  108.09   21.40
   5   0 -12  107.29   13.00
  -5   0 -12  115.79   13.30
  -5   0 -12   97.39   13.60
  -5  -1  12   14.50   13.40
   5  -1 -12   15.60    3.10
   5  -1 -12   20.60    8.60
  -5   1 -12   20.60    9.20
  -5   1 -12   12.80    6.40
  -5   1  12  -21.10   10.40
  -5  -1 -12   23.10    8.20
   5   1 -12   13.40    7.30
  -5  -1 -12   17.10    6.90
   5  -2 -12   99.79   10.10
  -5   2 -12   99.79   12.70
   5  -2 -12  124.09   14.60
  -5   2 -12  117.99   15.80
   5   2 -12  120.99   18.10
  -5   2  12   98.39   19.40
  -5  -2 -12  105.39   14.10
   5  -2  12  140.59   14.70
  -5  -2 -12  111.89   14.70
  -5   3 -12   11.50    6.00
  -5  -3  12    8.80   11.90
   5  -3 -12    8.90    4.30
  -5   3 -12   17.10    9.70
  -5   3  12   30.30   11.70
  -5   3  12   18.30    6.30
   5  -3  12   25.40    7.30
  -5  -3 -12   40.90    8.90
  -5  -3 -12    5.50    6.00
  -5   4 -12   34.30   14.80
  -5   4 -12   30.30    7.60
   5  -4 -12   41.60   11.20
  -5  -4  12   28.00   13.80
   5  -4 -12   36.30    6.60
  -5  -4 -12   37.20    9.90
   5   4 -12   58.99   18.60
  -5  -4 -12   35.50   10.50
  -5  -4 -12   36.50    8.70
  -5   4  12   41.10   12.90
  -5   4  12   35.00    7.10
   5  -4  12   35.90    8.40
  -5   5 -12    2.20   13.70
   5  -5 -12   16.70   10.10
   5  -5 -12    7.20    5.90
  -5  -5  12   -2.10   13.60
  -5   5 -12   -1.60    5.90
   5  -5  12   -1.60    7.00
   5   5 -12    2.00   15.50
  -5  -5 -12    5.10    9.30
  -5  -5 -12    1.10    8.10
  -5  -5 -12    2.80    8.10
  -5  -6  12    7.90   13.60
   5  -6 -12   27.60    7.70
   5  -6 -12   27.40   12.40
  -5   6 -12    8.20   17.30
  -5  -6 -12   38.70   22.30
  -5  -6 -12   28.60   11.00
  -5  -6 -12    4.00   10.20
   5   6 -12   33.50   20.40
  -5  -6 -12   11.70   11.00
   5  -6  12    3.60    7.80
  -5   7 -12   55.69   25.60
  -5  -7  12   47.30   19.50
   5  -7 -12   43.70    9.90
   5  -7 -12   28.10   13.20
  -5  -7 -12   82.79   32.60
  -5  -7 -12   19.60   13.20
  -5  -7 -12   49.30   12.60
  -5  -7 -12   48.70   12.40
   5  -7  12   43.50   11.20
  -5  -7 -12   50.49   12.30
   5   7 -12   63.59   27.10
   5  -8 -12   -0.20    9.10
   5  -8 -12   13.20   15.60
  -5  -8  12   15.50   17.30
  -5   8 -12   40.40   42.80
  -5  -8 -12   -0.20   14.00
  -5  -8 -12   13.30   35.40
   5  -8  12    3.50   10.60
  -5  -8 -12    4.70   10.90
  -5  -8 -12    5.90   11.40
   5   8 -12    8.70   26.90
   5  -9 -12   16.60   11.00
  -5   9 -12    7.30   41.40
   5  -9 -12   10.40   14.60
  -5  -9  12   21.70   20.30
  -5  -9 -12  -15.00   17.80
  -5  -9 -12   27.10   13.50
   5  -9  12   10.40   12.40
  -5  -9 -12   36.80   40.20
   5   9 -12   41.60   29.90
  -6   0  12  507.05   57.39
  -6   0 -12  629.24   51.19
   6   0 -12  627.24   50.99
  -6   0 -12  586.04   51.09
   6  -1 -12   75.29    9.50
  -6   1 -12   95.19   13.40
  -6  -1  12  144.29   27.60
  -6   1 -12  114.89   16.10
   6  -1 -12  102.59   14.10
  -6  -1 -12  111.89   14.40
  -6  -1 -12  140.69   16.80
  -6   1  12   32.50   19.90
   6   1 -12   94.89   13.20
  -6  -2  12  172.78   30.50
   6  -2 -12  216.28   19.10
   6  -2 -12  226.48   23.50
  -6   2 -12  239.08   24.70
  -6   2 -12  228.28   22.70
  -6  -2 -12  234.58   23.30
  -6   2  12  228.58   21.80
  -6   2  12  233.38   29.40
   6  -2  12  199.28   22.40
  -6  -2 -12  244.18   23.80
  -6  -3  12  -11.70   12.50
   6  -3 -12   21.50    5.40
   6  -3 -12   18.70   10.50
  -6   3 -12   12.60    8.00
  -6   3 -12   18.10   12.10
  -6  -3 -12   14.30    9.20
   6  -3  12   17.80    8.80
  -6   3  12   37.70   15.20
  -6  -3 -12   14.60   10.60
   6   3 -12   20.60   15.50
  -6   3  12   25.20    8.10
  -6   4 -12  234.48   23.30
   6  -4 -12  238.18   21.50
  -6  -4  12  225.48   32.90
   6  -4 -12  254.67   26.20
  -6   4 -12  236.38   27.00
   6   4 -12  275.37   32.90
  -6  -4 -12  255.07   25.60
  -6  -4 -12  265.67   25.80
  -6   4  12  250.27   28.90
  -6   4  12  226.28   22.80
   6  -4  12  255.47   23.20
  -6  -5  12    2.50   14.60
  -6   5 -12    2.90   14.90
  -6   5 -12    2.60    6.80
   6  -5 -12    3.90    6.10
   6  -5 -12   11.20   11.40
  -6  -5 -12    6.00   11.20
   6  -5  12   -4.00    8.50
   6   5 -12   13.90   17.50
  -6  -5 -12    5.50    9.60
   6  -6 -12  287.57   26.60
   6  -6 -12  260.67   31.10
  -6  -6  12  299.17   36.30
  -6  -6 -12  372.56   43.90
   6   6 -12  301.17   43.10
  -6  -6 -12  318.57   30.80
   6  -6  12  289.47   28.50
  -6  -6 -12  303.97   30.40
  -6  -7  12   30.50   20.70
   6  -7 -12   32.20    9.90
  -6   7 -12   46.00   24.90
   6  -7 -12   32.10   14.80
  -6  -7 -12   73.69   27.20
  -6  -7 -12   17.40   12.00
   6  -7  12   18.10   11.60
  -6  -7 -12   41.80   14.10
  -6  -7 -12   24.60   11.80
   6   7 -12   26.80   23.40
  -6  -8  12   74.19   23.30
  -6   8 -12   64.29   35.60
   6  -8 -12   80.39   13.80
   6  -8 -12   45.20   18.20
  -6  -8 -12   50.89   14.40
  -6  -8 -12   58.69   15.50
   6  -8  12   72.89   14.80
  -6  -8 -12   68.49   33.30
   6   8 -12   81.49   32.80
   7   0 -12   59.99   12.70
  -7   0 -12   59.39   12.40
  -7   0 -12   49.70   13.20
  -7   1 -12   33.30   13.50
  -7  -1  12   17.10   20.20
   7  -1 -12   31.80   10.80
  -7   1 -12   26.60   10.00
  -7   1  12   17.20   10.50
  -7   1  12   -6.20   15.80
  -7  -1 -12   31.60   10.70
  -7  -1 -12   45.40   11.90
  -7   2 -12   59.29   14.00
  -7  -2  12   51.59   22.20
  -7   2 -12   50.89   11.30
   7  -2 -12   52.79   13.40
  -7  -2 -12   65.39   14.60
  -7   2  12   51.29   12.20
  -7   2  12   63.49   20.70
   7  -2  12   53.89   12.40
  -7  -2 -12   55.89   12.50
  -7   3 -12   10.80    9.30
   7  -3 -12   -0.50    5.50
  -7  -3  12   -2.30   14.90
   7  -3 -12    7.70   10.60
  -7   3 -12    6.60   13.10
   7  -3  12   10.30    8.70
  -7   3  12   10.80    9.30
  -7  -3 -12   12.40   11.10
  -7  -3 -12   15.60   10.20
  -7   3  12   33.60   15.60
  -7   4 -12   38.70   10.30
  -7   4 -12   36.40   15.90
   7  -4 -12   29.10    7.30
   7  -4 -12   29.20   13.10
  -7  -4  12    5.90   18.20
  -7   4  12   60.49   18.40
  -7  -4 -12   31.20   12.40
   7  -4  12   28.70   10.70
   7   4 -12   64.09   22.50
  -7  -4 -12   23.70    9.70
   7  -5 -12   33.90   13.90
  -7   5 -12   21.50   17.00
   7  -5 -12   20.50    7.50
  -7   5 -12   12.20    8.90
  -7  -5  12    7.40   17.80
   7   5 -12   43.20   21.00
  -7  -5 -12   33.90   12.30
  -7  -5 -12   62.69   14.60
   7  -5  12   43.10   11.60
   7  -6 -12    7.20   15.20
  -7  -6  12    4.60   19.70
   7  -6 -12    3.90    7.80
  -7   6 -12   22.60   17.40
  -7  -6 -12    5.10   13.20
  -7  -6 -12    1.10   11.20
   7   6 -12   20.80   22.20
   7  -6  12   15.90   11.40
   7  -7 -12   13.10   15.70
  -7  -7  12    4.00   19.50
   7  -7 -12   26.30    9.90
  -7   7 -12   41.30   21.30
  -7  -7 -12   15.10   14.30
  -7  -7 -12   12.00   11.00
   7  -7  12   19.20   12.10
  -7  -7 -12   15.20   12.60
  -7  -7 -12   76.99   27.10
   7   7 -12   13.90   24.40
  -8   0 -12   73.59   15.10
   8   0 -12   79.29   15.60
  -8   0 -12   73.99   16.20
  -8   0  12   54.69   14.60
  -8   1 -12    9.70   10.60
  -8   1 -12   13.00   12.70
   8  -1 -12    4.60   11.00
  -8  -1  12  -30.80   20.20
  -8  -1 -12   11.70   13.70
  -8   1  12  -10.80   20.40
  -8   1  12    5.80   12.20
  -8  -1 -12   -0.30   10.70
   8  -2 -12  410.86   39.30
  -8   2 -12  380.76   37.20
  -8   2 -12  378.86   38.10
  -8  -2  12  399.66   53.49
  -8   2  12  402.16   37.60
  -8   2  12  424.16   46.60
  -8  -2 -12  392.56   38.10
  -8  -2 -12  395.56   38.70
  -8  -3  12    7.80   23.30
   8  -3 -12   17.90   13.10
  -8   3 -12   11.00   14.60
  -8   3 -12    6.00   11.00
  -8   3  12   37.60   19.60
  -8   3  12   10.00   11.30
  -8  -3 -12   16.30   12.20
   8  -3  12   22.60   12.30
  -8  -3 -12   20.70   13.00
   8  -4 -12  160.48   22.60
  -8   4 -12  187.38   26.80
  -8   4 -12  141.69   19.10
  -8  -4  12  111.59   29.50
   8  -4  12  188.28   21.20
  -8  -4 -12  164.28   21.60
  -8  -4 -12  123.29   19.00
  -8   4  12  225.18   30.40
   8  -5 -12    3.00   13.70
  -8   5 -12   17.40   17.10
  -8  -5  12    1.70   18.40
  -8  -5 -12  -17.60   11.70
   8  -5  12   -1.90   10.90
  -8  -5 -12    6.00   14.70
  -8  -6  12   74.79   26.80
   8  -6 -12   68.39   19.20
  -8   6 -12   60.79   21.50
  -8  -6 -12   58.19   16.20
   8  -6  12   52.59   14.90
  -8  -6 -12   52.19   16.00
   8   6 -12   83.89   29.20
  -9   0  12  -39.20   24.10
  -9   0 -12   30.50   16.80
  -9   0  12   26.60   15.70
  -9   0 -12   16.70   13.00
  -9   1 -12   27.70   17.10
  -9   1 -12   12.00   12.50
  -9  -1  12   24.80   17.30
   9  -1 -12   21.50   14.70
  -9   1  12   10.90   21.60
  -9  -1 -12   35.40   14.70
  -9  -1 -12   21.80   13.50
  -9   1  12   18.40   14.60
  -9  -2  12  -33.20   23.70
   9  -2 -12   11.50   13.40
  -9   2 -12    4.20   15.80
  -9  -2  12    4.20   16.70
  -9   2 -12   10.70   12.00
  -9   2  12   15.50   14.10
  -9  -2 -12    3.00   12.40
  -9  -2 -12  -10.00   15.20
  -9   2  12   24.00   20.50
  -9   3 -12   24.00   18.10
  -9   3 -12   24.50   13.60
  -9  -3  12    8.10   28.40
   9  -3 -12   16.80   16.10
  -9   3  12   26.20   21.90
  -9  -3 -12   11.30   14.40
  -9  -3 -12   16.70   14.00
  -9  -4  12    9.60   26.40
   9  -4 -12   26.90   15.80
  -9   4 -12   -4.30   11.60
  -9   4 -12   11.30   15.30
   9  -4  12   20.50   13.10
  -9   4  12   24.80   18.80
  -9  -4 -12    9.20   16.50
  -9  -4 -12    6.20   14.00
   9  -5 -12   12.80   17.70
  -9  -5  12   52.29   25.00
  -9   5 -12   48.40   21.90
   9  -5  12   32.60   13.30
  -9  -5 -12   33.80   19.20
 -10   0 -12  201.58   27.40
 -10   0  12  236.28   31.10
 -10   0  12  144.09   36.30
 -10   0 -12  242.18   32.00
 -10   1 -12   -7.90   13.50
 -10  -1  12    7.50   18.70
 -10   1 -12    6.40   16.00
 -10  -1 -12   -3.90   14.20
 -10   1  12   -9.50   15.90
 -10  -1 -12    7.30   17.90
 -10   1  12  -13.30   24.10
 -10  -2  12   72.09   23.40
  10  -2 -12   88.79   21.50
 -10   2 -12   59.59   21.10
 -10   2 -12   69.69   18.60
 -10   2  12   66.39   27.80
 -10  -2 -12   72.39   22.00
 -10   2  12   69.59   19.70
 -10  -2 -12   47.00   17.70
 -10   3 -12   -0.70   18.80
 -10  -3  12    6.50   21.20
 -10  -3  12  -65.19   28.50
  10  -3 -12    2.60   17.10
 -10   3  12   10.10   23.30
 -10  -3 -12    6.50   18.70
   0   0 -13    7.40    7.90
   0   0 -13    9.10    6.70
   0   0 -13   19.30    7.10
   0   0  13    8.10    7.10
   0   0 -13    8.10    5.90
   0   1 -13    2.30    6.80
   0  -1 -13   -3.70    5.90
   0   1 -13   10.90    9.60
   0  -1  13   -5.10    4.90
   0   1 -13   -1.80    8.80
   0   1  13   33.10   10.30
   0  -1 -13   -3.20    4.90
   0  -1 -13    2.70    6.70
   0   1 -13    2.10    5.30
   0  -2 -13    0.30    2.30
   0   2 -13    3.20   10.30
   0   2  13   -4.40    3.90
   0  -2  13   -3.70    4.50
   0  -2  13    2.20    3.30
   0   2 -13  -19.30    6.10
   0   2 -13    1.50    4.40
   0   2 -13  -10.90    7.90
   0  -2 -13   -5.60    4.90
   0   2  13    3.40    4.70
   0  -2 -13   -6.60    6.50
   0  -2 -13    4.50    8.10
   0  -3 -13   -3.50    8.10
   0   3 -13   -3.80    5.10
   0  -3 -13   -3.80    4.00
   0  -3 -13   -0.80    7.00
   0   3 -13   -4.60   13.30
   0   3  13   -2.00    2.90
   0   3 -13   -3.70    3.10
   0  -3  13    3.00    5.70
   0  -3  13   -3.40    3.40
   0  -3 -13    1.00    3.10
   0  -4 -13   34.60   13.20
   0   4 -13   34.00    6.30
   0   4 -13   34.20   17.20
   0  -4 -13   45.00   11.40
   0  -4  13   41.60    8.80
   0   4 -13   21.80   11.40
   0  -4  13   46.90    6.10
   0  -4 -13   22.00    5.30
   0  -5  13   -2.60    4.50
   0   5 -13    2.40    3.60
   0  -5 -13   -5.80    5.50
   0  -5  13   -1.40    7.30
   0  -5 -13    2.60    3.30
   0  -5 -13   -8.80    8.80
   0  -5  13   -8.00    4.80
   0   5 -13  -17.00   15.00
   0  -5 -13  -14.90   10.90
   0  -6 -13   15.80    7.00
   0  -6 -13   10.70   12.60
   0  -6  13   12.20    5.80
   0  -6 -13  -19.20   13.60
   0  -6  13    8.30    8.20
   0   6 -13  -22.20   17.10
   0   6  13   12.00    6.50
   0  -7  13   -0.50    6.60
   0  -7  13   -7.60    9.20
   0  -7 -13  -18.30   14.00
   0   7  13    1.10    8.10
   0  -7 -13    4.20    7.90
   0   7 -13  -46.40   21.90
   0  -8  13   14.20   12.50
   0  -8 -13   13.00   18.20
   0  -8 -13   18.90    9.60
   0  -8  13   15.20    8.40
   0   8 -13   -7.30   23.00
   0  -9 -13   -1.90   19.10
   0  -9  13   -3.10   14.20
   0  -9  13   -0.70    9.00
   0  -9 -13    0.70   10.20
   0   9 -13   -9.40   26.10
   0 -10  13   34.10   11.90
   0 -10 -13   28.30   21.60
   0 -10  13   24.50   18.60
   0  10 -13   13.90   31.10
   0 -10 -13   30.90   11.60
   1   0 -13   -6.20    4.60
  -1   0 -13   -1.30    5.10
  -1   0  13    6.60    7.20
   1   0 -13  -10.10    5.90
   1   0 -13  -11.80    5.50
  -1   0  13   -2.10    4.60
  -1   0 -13   -0.40    4.30
  -1   0 -13    7.70    5.70
   1   0 -13   10.00    3.50
   1   0  13   34.80    8.80
  -1   0 -13  -10.20    6.00
   1   0 -13   -4.00    5.00
   1  -1 -13   63.19   11.30
   1   1  13   81.39   10.60
   1  -1 -13   38.30    9.90
  -1   1 -13   41.40   11.30
   1  -1 -13   60.29   10.30
  -1   1 -13   48.10    9.90
   1  -1 -13   83.79    7.80
  -1  -1  13   66.49    9.70
  -1  -1  13   58.59   11.30
   1   1 -13   71.19    8.60
  -1   1  13   76.39    7.70
  -1   1  13   53.69   13.50
  -1  -1 -13   74.19    8.90
  -1  -1 -13   57.59   10.40
  -1  -1 -13   66.79   12.60
   1   1 -13   91.19   12.50
   1   1 -13   77.79   10.90
  -1  -1 -13   87.39   10.60
   1  -1  13   66.39    9.10
   1   1 -13   75.19    7.80
   1  -1  13   93.99    9.90
   1   1 -13   53.89   12.30
   1  -2 -13   88.49   16.20
  -1  -2  13  128.59   15.50
  -1  -2  13  127.39   11.60
   1   2  13  129.39   12.90
  -1   2 -13  124.49   16.90
   1  -2  13  138.29   13.60
  -1   2  13  147.89   13.10
  -1  -2 -13  118.09   17.30
  -1  -2 -13   90.29   14.50
   1   2 -13  150.18   14.50
  -1  -2 -13  134.19   13.50
  -1   2  13  131.29   15.60
   1  -2  13  109.99   11.90
   1   2 -13  145.09   11.60
  -1  -2 -13  128.99   13.10
  -1  -3  13  285.17   24.60
  -1   3 -13  275.67   24.60
  -1  -3  13  303.77   27.40
  -1   3 -13  348.27   31.20
  -1   3 -13  361.86   28.90
  -1   3  13  314.97   27.80
  -1  -3 -13  349.37   31.90
   1  -3  13  302.57   26.30
  -1  -3 -13  313.57   25.40
   1  -3  13  274.47   24.90
   1   3 -13  285.17   25.80
  -1  -3 -13  286.67   26.40
  -1   3  13  274.77   24.60
  -1  -4  13  238.88   19.70
  -1  -4  13  257.37   23.50
  -1   4 -13  228.58   19.50
  -1   4 -13  180.98   26.80
   1  -4 -13  176.78   24.50
  -1   4 -13  316.87   35.70
   1  -4 -13  243.98   20.30
   1  -4  13  261.77   20.30
   1  -4  13  238.88   21.60
  -1  -4 -13  235.18   20.20
   1   4 -13  165.38   30.40
   1   4 -13  242.98   20.50
  -1  -4 -13  201.08   22.50
  -1   5 -13   79.89   25.70
   1  -5 -13   97.39   10.40
   1  -5 -13   40.50   12.00
  -1   5 -13   80.79    9.50
  -1  -5  13   79.99    9.00
   1  -5 -13   75.59   16.20
  -1  -5  13   76.79   12.80
   1  -5  13   72.49    9.20
   1  -5  13   75.79   12.10
  -1  -5 -13   82.99    9.00
  -1  -5 -13   70.19   10.20
  -1   5  13   75.09    8.40
   1  -5  13   63.19    9.00
   1   5 -13   39.50   19.50
  -1  -5 -13  107.89   21.30
  -1   6 -13   27.50   23.40
   1  -6 -13   44.70   15.30
  -1  -6  13   51.29   11.80
  -1   6 -13   35.50   16.40
  -1  -6  13   57.79    8.10
   1  -6 -13   49.00   12.20
   1  -6 -13   48.10    9.00
  -1   6  13   60.19    8.90
  -1  -6 -13   67.69   21.00
  -1  -6 -13   83.79   11.20
   1  -6  13   57.69    8.80
  -1  -6 -13   55.89    7.80
   1   6 -13   28.10   20.70
  -1  -6 -13   44.10   13.50
   1  -6  13   43.00   11.10
   1  -7 -13  200.18   21.90
   1   7  13  172.18   20.40
   1  -7 -13  184.88   25.60
  -1  -7  13  191.68   17.90
   1  -7 -13  179.78   18.80
  -1  -7  13  179.58   22.70
   1   7 -13  174.28   36.80
   1  -7  13  197.58   22.50
   1  -7  13  190.38   17.80
  -1  -7 -13  180.28   19.20
  -1  -7 -13  221.38   26.00
  -1  -7 -13  134.89   30.20
   1  -8 -13   13.30    9.30
  -1  -8  13    4.50   14.00
  -1   8 -13  -41.10   24.20
  -1  -8  13   -1.20    7.40
   1  -8 -13   12.50   15.30
   1   8 -13   23.20   25.20
  -1  -8 -13   12.00   10.00
  -1  -8 -13    7.10   18.60
   1  -8  13    2.60   12.00
  -1  -8 -13  -30.70   19.60
   1  -8  13   16.80    7.90
   1  -9 -13  105.89   23.30
  -1   9 -13   45.40   39.10
  -1  -9  13  116.79   24.20
  -1  -9  13  138.69   16.20
   1  -9 -13  148.79   17.70
  -1  -9 -13  118.89   17.60
   1  -9  13  101.49   21.00
   1  -9  13  113.29   15.70
  -1  -9 -13   84.69   28.60
   1   9 -13  107.29   37.40
  -1  10 -13    7.50   35.50
   1 -10 -13    7.90   12.30
  -1 -10  13    1.20   17.70
  -1 -10  13    5.40   10.30
   1 -10 -13   17.70   20.80
   1 -10  13   -5.90   11.80
   1 -10  13  -10.90   16.70
  -1 -10 -13    3.90   21.30
   1  10 -13   21.10   33.80
  -1 -10 -13   -0.90   11.40
   2   0 -13    4.20    4.90
  -2   0  13   -1.00    3.90
   2   0 -13   -0.40    4.50
  -2   0 -13    3.30    4.80
  -2   0 -13   -1.00    5.20
  -2   0 -13   -1.40    3.00
   2   0 -13    1.30    3.60
  -2   0  13   -4.10    8.80
   2  -1 -13   27.80    6.80
  -2  -1  13   16.20    4.50
   2  -1 -13   20.10    4.70
  -2   1 -13   18.50    6.00
  -2   1 -13   14.40    8.70
  -2  -1  13   -1.40    6.90
   2  -1 -13   24.10    6.60
  -2  -1 -13   18.80    6.20
   2   1 -13   18.80    8.10
   2  -1  13    6.10    5.30
   2  -1  13   17.00    4.70
  -2   1  13   18.70    4.40
  -2  -1 -13   20.30    3.90
   2   1 -13   22.20    4.80
   2   1 -13   23.10    5.80
   2   1 -13   20.60    3.90
  -2   1  13   -3.60    8.80
  -2  -1 -13   17.20    5.20
  -2   2 -13   21.60    6.50
  -2   2 -13   -4.60    7.30
  -2  -2  13   10.30    7.70
   2  -2 -13   29.70    7.90
   2  -2 -13   16.10    5.70
   2  -2 -13   22.10    4.10
  -2  -2  13   15.00    4.00
  -2  -2  13   15.50    3.60
  -2  -2 -13   21.50    5.60
   2   2 -13   20.90    9.00
  -2  -2 -13   10.40    4.10
  -2   2  13   13.90    9.10
   2   2 -13   20.50    3.90
  -2   2  13   19.00    4.20
   2  -2  13   21.10    5.00
  -2  -2 -13   13.20    6.10
  -2  -2 -13   29.90   10.50
   2   2 -13   18.90    5.30
   2  -2  13   15.70    4.80
   2   2 -13   15.90    2.90
  -2   3 -13   -3.90    8.70
  -2  -3  13   -0.10    7.00
   2  -3 -13    6.00    6.10
   2  -3 -13    0.00    3.60
  -2   3 -13    0.00    5.00
  -2  -3  13    3.10    2.90
   2  -3 -13    3.90    7.50
  -2  -3 -13    0.90    5.70
   2  -3  13   -1.00    4.30
  -2   3  13    6.60    7.90
  -2  -3 -13   -1.20    4.70
  -2  -3 -13   -6.00    9.30
   2   3 -13    5.90   10.00
   2   3 -13    1.10    1.90
   2   3 -13    8.30    4.40
   2  -3  13   -0.80    4.00
  -2   4 -13    2.30   13.00
   2  -4 -13    5.60    9.20
  -2   4 -13   -3.30    4.80
   2  -4 -13   -0.90    3.80
   2  -4 -13    4.30    6.10
  -2  -4  13   -1.50    3.20
  -2  -4  13   -3.30    7.20
  -2   4  13    5.90    7.60
   2   4 -13   -0.20   12.80
   2  -4  13   -1.70    4.90
   2  -4  13   -3.00    4.80
  -2  -4 -13    2.10    6.40
  -2  -4 -13    6.10   12.70
  -2  -4 -13   -0.40    4.80
   2  -5 -13   23.10    7.90
  -2   5 -13   26.40   20.80
  -2  -5  13   10.90    9.80
   2  -5 -13   16.50   10.10
  -2   5 -13   -2.30    7.40
  -2   5 -13   21.60   17.00
  -2  -5  13   11.30    4.60
   2  -5 -13   13.90    5.80
  -2  -5 -13   18.30    5.90
   2  -5  13    7.60    6.80
  -2   5  13   12.90    4.20
   2  -5  13   18.80    6.30
  -2  -5 -13    8.80    9.00
   2   5 -13    0.10   14.30
  -2  -5 -13   22.60   16.60
  -2  -6  13   31.70    6.40
   2  -6 -13   25.90    7.10
  -2   6 -13   35.80   26.10
  -2  -6  13   29.20   12.50
   2  -6 -13   37.70   13.40
   2  -6 -13   31.00    8.50
  -2  -6 -13   42.10    7.40
   2   6 -13   16.70   18.20
  -2  -6 -13   21.30   10.90
   2  -6  13   37.50    8.30
  -2  -6 -13   39.60    9.80
  -2  -6 -13   50.19   22.10
  -2   6  13   32.00   10.10
  -2  -7  13    9.20    6.40
  -2   7 -13  -21.80   23.50
  -2  -7  13   -0.20   10.50
   2  -7 -13    6.40    6.70
   2  -7 -13   11.80   12.80
   2  -7 -13    3.10    7.30
  -2   7 -13  -22.40   15.50
  -2  -7 -13   -2.50   20.50
  -2  -7 -13    0.10    8.70
   2  -7  13    5.70    7.50
  -2  -7 -13    5.30    9.10
   2   7 -13    1.50   21.80
   2  -8 -13   35.30   10.20
   2  -8 -13   39.90   17.40
  -2  -8  13   29.30    8.50
  -2   8 -13  -17.90   28.00
  -2  -8  13   13.80   13.40
   2  -8  13   17.20    9.40
   2   8 -13   33.30   24.10
  -2  -8 -13   39.70   15.10
  -2  -8 -13   22.20   10.90
  -2  -8 -13   -3.90   27.10
   2  -9 -13    4.80   15.40
  -2  -9  13   -3.40   10.20
  -2  -9  13  -11.60   16.60
   2  -9 -13    5.70    9.10
  -2  -9 -13    6.60   11.90
   2  -9  13   -0.60   10.00
   2  -9  13  -11.00   13.80
   2   9 -13    9.30   29.50
   2 -10 -13   16.60   12.40
  -2 -10  13   15.60   18.60
   2 -10 -13   11.00   16.80
  -2 -10  13   11.60   10.20
  -2  10 -13  -47.50   37.80
  -2 -10 -13    3.80   13.20
   2 -10  13   19.30   12.30
  -2 -10 -13  -37.90   21.90
   2  10 -13   22.50   29.90
   2 -10  13   13.00   20.50
   3   0 -13    3.80    5.90
   3   0 -13   -1.40    1.70
   3   0 -13    2.70    4.60
   3   0 -13    1.10    4.30
  -3   0  13    5.50    9.50
  -3   0 -13    1.90    5.00
  -3   0 -13   -0.80    5.50
   3  -1 -13  346.27   27.60
   3  -1 -13  326.77   29.60
  -3   1 -13  369.16   29.90
   3  -1 -13  375.36   30.30
  -3   1 -13  361.16   30.60
  -3  -1 -13  324.67   27.70
   3   1 -13  370.06   29.90
   3  -1  13  289.07   28.10
   3  -1  13  313.87   29.40
  -3  -1 -13  369.76   30.30
   3   1 -13  321.27   27.20
  -3   1  13  351.36   29.10
   3   1 -13  394.86   32.70
  -3  -1 -13  313.97   29.40
   3   1 -13  349.57   29.10
  -3   2 -13   69.49   13.00
  -3  -2  13   40.20   12.60
  -3   2 -13   58.59    8.90
   3  -2 -13   65.39   10.40
  -3  -2  13   58.79    6.90
   3  -2 -13   60.29    9.00
   3  -2 -13   52.29    6.00
   3   2 -13   49.20    4.80
  -3  -2 -13   53.79    6.40
   3   2 -13   51.09    8.10
   3   2 -13   58.29    7.30
  -3  -2 -13   56.69    9.00
  -3   2  13   52.99   13.70
   3  -2  13   67.49    8.90
  -3   2  13   45.90    6.80
  -3  -2 -13   54.09    9.30
  -3   2  13   45.50    6.10
   3   2 -13   64.39   12.80
   3  -2  13   58.59    7.30
  -3   3 -13   10.20    4.90
   3  -3 -13   13.20    4.20
  -3   3 -13    0.90    9.20
   3  -3 -13   16.70    8.20
  -3  -3  13   11.90    9.90
  -3  -3  13   10.20    3.40
  -3  -3  13   14.10    3.00
   3  -3 -13   10.60    5.70
  -3   3  13   12.80    3.60
   3  -3  13   14.20    5.90
  -3   3  13   21.30    4.30
  -3  -3 -13   13.80    6.20
  -3  -3 -13   10.60    4.20
   3  -3  13    9.80    4.80
   3   3 -13   12.70    2.70
  -3   3  13   16.50    9.30
   3   3 -13   10.60   11.70
  -3  -3 -13    9.90    5.30
  -3  -4  13    7.40    2.40
   3  -4 -13    2.60    4.50
  -3  -4  13    3.10    8.70
   3  -4 -13   10.40    5.80
  -3   4 -13   -9.60    9.70
  -3  -4  13    3.70    3.20
   3  -4 -13    8.10    8.20
  -3   4 -13    5.70    5.50
  -3  -4 -13   22.70   14.60
  -3  -4 -13    7.20    7.10
   3   4 -13    9.50   13.80
  -3   4  13   20.20    9.60
   3  -4  13    7.80    6.20
  -3   4  13    9.50    4.20
  -3  -4 -13    1.50    6.00
  -3   5 -13  595.44   53.49
   3  -5 -13  555.34   48.60
   3  -5 -13  546.65   44.50
  -3  -5  13  530.75   43.60
  -3  -5  13  520.55   48.80
   3  -5 -13  592.74   46.30
  -3  -5 -13  512.45   55.09
   3  -5  13  519.45   44.60
   3   5 -13  521.25   53.59
  -3  -5 -13  523.95   46.70
  -3   5  13  518.95   44.70
  -3  -5 -13  551.54   45.00
   3  -6 -13   85.49   10.90
  -3  -6  13   58.19   14.70
  -3   6 -13  122.29   32.70
   3  -6 -13   74.59   10.70
  -3   6 -13   58.49   21.90
   3  -6 -13   76.49   16.00
  -3  -6  13   67.09    8.80
  -3  -6 -13   65.59   13.90
  -3  -6 -13   76.49   12.40
  -3  -6 -13  118.49   30.60
  -3  -6 -13   65.69   10.90
   3   6 -13   64.69   22.50
   3  -6  13   68.49   10.90
  -3   7 -13  114.19   38.30
   3  -7 -13   60.49   10.70
  -3  -7  13   58.39   16.40
   3  -7 -13   74.89   17.60
   3  -7 -13   85.29   11.90
  -3  -7  13   80.59   10.10
  -3  -7 -13   62.59   11.50
   3   7 -13   82.59   27.90
  -3  -7 -13  113.49   31.80
   3  -7  13   76.09   12.30
  -3  -7 -13   57.19   14.00
  -3  -7 -13   78.59   13.30
  -3  -8  13   11.50    7.70
  -3   8 -13    6.60   32.10
  -3  -8  13   -2.50   14.00
   3  -8 -13   11.50    9.30
  -3   8 -13  -26.70   19.40
   3  -8 -13   14.20   13.80
  -3  -8 -13   14.40   11.70
  -3  -8 -13   -8.10   10.40
   3  -8  13    1.40    9.40
   3   8 -13   10.00   22.60
  -3  -8 -13    3.80   28.70
  -3  -9  13  103.59   24.30
   3  -9 -13  107.59   22.20
   3  -9 -13   92.59   15.80
  -3  -9  13   95.79   13.60
   3  -9  13   85.99   14.40
   3   9 -13   79.89   33.00
  -3  -9 -13   90.59   15.60
  -3  -9 -13   39.30   33.10
   4   0 -13    8.00    5.60
  -4   0  13    4.70   11.20
  -4   0 -13    8.80    7.50
  -4   0 -13    1.70    5.40
   4   0 -13    6.50    5.30
   4  -1 -13   20.10    3.10
  -4   1 -13   26.50    6.60
  -4   1 -13   17.40    7.90
   4  -1 -13   19.50    6.40
   4  -1 -13   29.80    8.10
  -4  -1  13   10.10   11.50
   4   1 -13   28.50   10.40
  -4   1  13  -10.80   10.30
   4   1 -13   22.00    6.60
  -4  -1 -13   20.30    6.80
  -4  -1 -13   24.30    7.60
   4   1 -13   20.60    6.50
   4  -2 -13    0.70    2.90
  -4  -2  13  -12.90    8.80
  -4   2 -13    7.50    8.80
   4  -2 -13    9.10    6.90
  -4   2 -13    3.10    4.90
   4  -2 -13    8.00    5.70
  -4  -2 -13    2.90    3.00
   4  -2  13    5.00    3.40
   4   2 -13    5.10    8.90
  -4  -2 -13    2.10    7.00
   4  -2  13    3.90    3.40
  -4   2  13   -0.10    4.70
  -4  -2 -13    3.10    4.80
  -4   2  13    4.70   11.00
   4   2 -13    2.40    5.40
  -4  -2 -13    2.00    2.50
   4  -2  13    4.80    6.10
   4  -3 -13   51.39    6.60
  -4  -3  13   43.50   13.00
  -4   3 -13   40.20   12.10
  -4   3 -13   48.80    8.10
  -4  -3  13   46.20    6.70
   4  -3 -13   49.00    8.80
   4  -3 -13   54.89   11.00
  -4   3  13   56.39    7.90
   4  -3  13   39.70    8.70
   4   3 -13   75.69   17.20
  -4  -3 -13   62.79   10.30
  -4   3  13   40.50    6.40
  -4   3  13   60.99   13.90
  -4  -3 -13   44.50    6.30
  -4  -3 -13   45.40    9.60
   4  -4 -13   17.50    5.30
  -4   4 -13  -11.70   11.90
   4  -4 -13   25.80    7.70
   4  -4 -13   25.20    9.80
  -4   4 -13   14.80    5.90
  -4  -4  13   21.80    3.70
  -4  -4  13   14.50   11.00
  -4   4  13   27.80   11.20
  -4   4  13   14.10    4.30
   4   4 -13   33.80   15.90
  -4  -4 -13   19.30    8.30
  -4  -4 -13   27.20    8.10
   4  -4  13   31.20    8.00
  -4  -5  13   10.30   11.10
   4  -5 -13    5.50    5.50
   4  -5 -13    2.40    5.80
   4  -5 -13   11.50    9.50
  -4  -5  13    4.70    3.70
  -4   5 -13    6.90    5.50
  -4   5 -13  -15.70   12.90
   4  -5  13    4.00    6.40
  -4  -5 -13    3.60    7.70
  -4  -5 -13   23.70   18.20
  -4  -5 -13    3.40    8.10
   4   5 -13   10.80   15.80
  -4  -6  13    5.50   11.90
   4  -6 -13   11.10    6.50
  -4   6 -13   20.90   19.60
  -4  -6  13    6.10    4.80
   4  -6 -13   17.80   11.50
   4  -6 -13    7.60    6.90
  -4  -6 -13   26.20   22.50
  -4  -6 -13   19.40    9.50
  -4  -6 -13   17.50    9.00
   4  -6  13   10.90    7.40
   4   6 -13   28.70   19.50
   4  -7 -13    4.20    7.00
  -4  -7  13    4.40    6.40
   4  -7 -13   19.50   14.40
  -4   7 -13   86.59   37.30
  -4   7 -13  -17.90   22.20
  -4  -7  13   -4.80   13.00
  -4  -7 -13   12.20   10.20
  -4  -7 -13   22.60   30.30
  -4  -7 -13    9.10   12.10
   4   7 -13   40.60   25.30
  -4  -7 -13    7.40   10.60
   4  -7  13    9.10    8.30
   4  -8 -13   32.60   10.10
   4  -8 -13   17.00   14.60
  -4  -8  13   20.20   18.40
  -4   8 -13   47.10   36.90
  -4  -8 -13   34.10   14.30
   4   8 -13   21.50   25.40
   4  -8  13   16.10   10.60
  -4  -8 -13   41.70   33.10
  -4  -8 -13   10.10   12.10
   4  -9 -13   14.00   17.90
   4  -9 -13   22.50   11.50
  -4  -9  13   15.40   18.30
  -4   9 -13   17.10   37.90
   4  -9  13   12.30   11.20
   4   9 -13   20.20   29.10
  -4  -9 -13    1.30   10.80
  -4  -9 -13  -22.90   35.90
  -5   0 -13    0.60    6.00
  -5   0 -13   -3.10    7.50
   5   0 -13    3.90    7.20
  -5   0  13    2.80   13.40
  -5  -1  13  162.38   25.30
   5  -1 -13  148.29   12.90
  -5   1 -13  139.49   16.20
   5  -1 -13  167.58   17.20
  -5   1 -13  172.48   18.50
   5   1 -13  155.28   16.60
   5   1 -13  163.98   21.40
  -5  -1 -13  154.98   17.10
  -5  -1 -13  141.79   16.80
   5  -2 -13   38.40   10.00
  -5  -2  13   -4.70   11.30
  -5   2 -13   26.40   10.00
   5  -2 -13   34.00    4.80
  -5   2 -13   30.90    8.20
   5   2 -13   40.00   13.20
  -5   2  13   25.70   14.40
  -5  -2 -13   28.00    8.80
   5  -2  13   30.20    4.60
  -5  -2 -13   26.50    9.10
   5  -2  13   26.80    8.10
  -5   3 -13  677.23   55.79
   5  -3 -13  634.64   54.39
   5  -3 -13  596.24   50.89
  -5   3 -13  607.74   52.59
  -5  -3  13  491.75   56.89
  -5   3  13  686.13   58.19
  -5  -3 -13  691.33   53.49
  -5   3  13  674.23   52.09
   5  -3  13  611.04   52.39
  -5  -3 -13  634.94   53.89
   5   3 -13  633.34   58.29
  -5   4 -13    1.80    5.90
   5  -4 -13   15.40    9.70
   5  -4 -13    1.60    4.80
  -5   4 -13   -1.30   12.70
  -5  -4  13   -1.00   11.80
  -5   4  13    8.80   11.40
  -5   4  13    1.50    5.20
  -5  -4 -13    2.30    6.30
   5   4 -13   14.50   14.80
  -5  -4 -13    3.80    8.80
  -5  -4 -13   -0.20    6.00
   5  -4  13    2.20    6.50
   5  -5 -13   26.30   11.80
  -5   5 -13   22.50    7.50
  -5   5 -13   11.30   15.20
   5  -5 -13   25.50    7.00
  -5  -5  13   13.20   13.70
  -5  -5 -13   19.00   10.30
   5  -5  13   33.20    9.50
  -5  -5 -13   23.50    9.30
  -5  -5 -13   62.19   23.80
   5   5 -13   39.10   19.30
  -5  -5 -13   19.40    9.70
  -5  -6  13   10.20   14.10
  -5   6 -13   -5.20   17.10
   5  -6 -13    9.50    7.30
   5  -6 -13    9.50   12.80
  -5  -6 -13    6.50   10.30
  -5  -6 -13   46.10   25.20
  -5  -6 -13    9.80   10.30
   5   6 -13   39.90   23.80
  -5  -6 -13    1.00    9.40
   5  -6  13    6.90    9.30
  -5   7 -13  285.47   41.20
   5  -7 -13  226.28   27.10
  -5  -7  13  213.18   30.30
   5  -7 -13  223.68   22.00
  -5  -7 -13  286.17   47.60
  -5  -7 -13  196.08   27.10
  -5  -7 -13  210.88   23.90
  -5  -7 -13  198.38   23.60
   5  -7  13  231.68   23.20
   5   7 -13  237.38   39.30
  -5  -7 -13  250.37   27.20
  -5  -8  13   16.70   18.20
  -5   8 -13  -43.00   24.40
   5  -8 -13   19.90   14.90
  -5   8 -13   49.99   40.50
   5  -8 -13   10.90    9.60
  -5  -8 -13   15.50   14.20
  -5  -8 -13   -0.10   11.30
   5   8 -13   19.40   26.80
  -5  -8 -13   15.80   14.70
   5  -8  13    7.50   11.00
  -5  -8 -13   28.00   32.90
   5  -9 -13   68.89   13.80
   5  -9 -13   63.09   19.80
  -5  -9 -13   59.69   16.20
   5  -9  13   74.49   14.40
  -5  -9 -13  104.19   46.40
  -6   0 -13   22.90    9.80
   6   0 -13   21.30    8.70
  -6   0 -13    0.70    7.50
  -6   0  13    6.50   16.40
   6  -1 -13   21.00    5.30
  -6   1 -13   30.50    9.10
  -6   1 -13   44.60   11.50
  -6  -1  13   52.69   19.80
   6  -1 -13   49.50   11.70
  -6   1  13   -5.00   17.70
   6   1 -13   48.90   11.00
  -6  -1 -13   32.20    9.70
  -6  -1 -13   48.50   12.20
   6  -2 -13    8.70    9.40
  -6  -2  13    4.40   16.50
  -6   2 -13    1.30   10.70
   6  -2 -13    4.40    4.00
  -6   2 -13    2.60    6.70
  -6   2  13   12.70    8.00
  -6  -2 -13    4.00    9.00
  -6  -2 -13    3.60    8.10
   6  -2  13    3.70    8.20
  -6   2  13    4.00   14.10
   6   2 -13   13.40   12.50
   6  -3 -13    1.70    4.60
  -6   3 -13    0.60   10.50
   6  -3 -13   18.90   10.50
  -6   3 -13    7.30    7.60
  -6  -3  13   -7.90   12.30
  -6  -3 -13    0.90    9.10
  -6   3  13   22.30   14.70
   6  -3  13   13.50    8.70
  -6   3  13   13.80    7.80
   6   3 -13    9.10   13.70
  -6  -3 -13    0.50    8.70
  -6   4 -13   13.00   14.50
   6  -4 -13    8.80    5.80
  -6   4 -13   11.30    7.50
   6  -4 -13   13.80   11.00
  -6  -4  13    1.50   15.80
  -6   4  13   33.80   15.90
   6  -4  13   21.10    9.30
  -6  -4 -13   14.00    9.50
  -6  -4 -13   33.30   11.60
   6   4 -13   20.80   16.50
   6  -5 -13   19.50    7.10
  -6   5 -13   17.40    8.10
  -6   5 -13   10.00   16.00
   6  -5 -13   37.70   14.50
  -6  -5  13   17.50   15.90
   6   5 -13   33.90   19.90
  -6  -5 -13   19.70   12.20
   6  -5  13   26.70   10.30
  -6   5  13   34.00   14.90
  -6  -5 -13   14.90   10.40
   6  -6 -13   25.60   13.80
  -6  -6  13   11.90   18.40
   6  -6 -13   16.80    7.70
  -6   6 -13   16.30   15.90
   6  -6  13   21.40    9.80
  -6  -6 -13   46.50   13.50
  -6  -6 -13   42.60   24.70
   6   6 -13   31.30   21.70
  -6  -6 -13   22.60   11.50
   6  -7 -13    2.70   13.90
  -6   7 -13   20.10   22.40
   6  -7 -13   11.60    8.80
  -6  -7  13    9.10   17.40
  -6  -7 -13    1.70   11.20
  -6  -7 -13    2.70   11.00
   6   7 -13    7.00   23.00
  -6  -7 -13    9.70   12.70
  -6  -7 -13   64.29   29.30
   6  -7  13    5.10   10.80
  -6  -8  13   16.20   20.20
   6  -8 -13   21.10   10.60
  -6   8 -13  -20.00   27.70
   6  -8 -13    9.70   17.50
   6   8 -13   25.90   28.20
   6  -8  13   28.20   12.80
  -6  -8 -13   -5.00   11.20
  -6  -8 -13   30.60   34.60
  -6  -8 -13   17.90   14.50
   7   0 -13    3.50    9.50
  -7   0  13  -15.70   16.80
  -7   0 -13    0.40    8.90
  -7   0 -13   -4.50   10.10
  -7  -1  13  355.56   44.90
  -7   1 -13  380.86   33.20
   7  -1 -13  332.47   31.40
  -7   1 -13  348.67   31.10
  -7  -1 -13  316.77   31.20
  -7  -1 -13  297.07   30.10
   7   1 -13  336.27   31.80
  -7   1  13  206.98   39.80
  -7   1  13  298.67   31.00
   7  -2 -13   16.60   11.10
  -7   2 -13   12.00    8.60
  -7   2 -13   10.70   13.30
  -7  -2  13    6.60   20.50
  -7   2  13    4.10    9.80
  -7  -2 -13    9.90   10.90
  -7   2  13   -3.70   16.10
  -7  -2 -13   10.60    9.90
   7  -2  13    6.80    9.90
  -7   3 -13  124.29   19.90
   7  -3 -13  138.99   20.10
  -7   3 -13  109.59   15.80
  -7  -3  13   64.09   24.20
  -7  -3 -13  129.69   18.10
  -7  -3 -13  124.29   18.60
   7  -3  13  114.19   16.40
  -7   3  13  153.88   25.10
  -7   3  13  129.99   17.20
  -7   4 -13   62.19   18.80
  -7   4 -13   62.39   11.50
   7  -4 -13   62.79   16.00
   7  -4 -13   69.29    9.50
  -7  -4  13   29.10   18.50
   7   4 -13   73.59   23.00
  -7  -4 -13   44.20   13.90
   7  -4  13   59.99   11.90
  -7  -4 -13   53.19   12.40
  -7   4  13   82.99   19.60
  -7   5 -13  241.28   25.60
  -7  -5  13  176.28   34.40
  -7   5 -13  236.48   32.90
   7  -5 -13  248.18   23.60
   7  -5 -13  245.38   31.00
  -7   5  13  313.17   33.70
  -7  -5 -13  336.37   29.50
   7  -5  13  259.67   25.30
   7   5 -13  273.57   38.30
  -7  -5 -13  257.87   28.10
  -7   6 -13   28.90   17.00
   7  -6 -13   -5.00   13.50
   7  -6 -13   12.10    8.10
  -7  -6  13    4.30   20.80
  -7  -6 -13   -5.70   13.50
  -7  -6 -13   -6.00   12.80
   7   6 -13    5.50   24.80
  -7  -6 -13   52.69   26.20
   7  -6  13   -2.50    9.60
  -7  -7  13   57.69   27.10
  -7   7 -13   79.49   24.00
   7  -7 -13   28.70   10.80
   7  -7 -13   36.40   19.90
   7   7 -13   52.69   29.10
  -7  -7 -13   74.59   27.60
  -7  -7 -13   40.60   16.90
   7  -7  13   50.19   14.60
  -7  -7 -13   40.60   16.40
  -7  -7 -13   45.10   13.30
   8   0 -13    6.00   11.30
  -8   0  13   -0.60   12.50
  -8   0 -13    3.60   10.90
  -8   0 -13    6.80   12.20
  -8   1 -13    9.80   10.90
   8  -1 -13   15.60   12.00
  -8   1 -13    6.00   12.60
  -8  -1  13  -17.70   21.60
  -8  -1 -13   12.30   12.70
  -8  -1 -13   16.00   11.60
  -8   1  13   13.00   12.90
  -8  -2  13   18.80   23.60
  -8   2 -13   20.40   11.00
   8  -2 -13   24.10   14.30
  -8   2 -13   39.00   15.90
  -8  -2 -13   26.90   12.40
  -8  -2 -13   46.30   14.10
  -8   2  13   14.80   12.50
  -8   2  13   25.10   19.80
  -8   3 -13   20.20   10.60
  -8   3 -13   21.70   16.70
  -8  -3  13   22.10   21.80
   8  -3 -13   28.20   13.90
   8  -3  13    5.70   12.30
  -8  -3 -13   14.40   12.10
  -8  -3 -13   33.20   15.10
  -8   3  13   27.90   18.70
  -8   3  13   19.80   12.40
  -8  -4  13    9.60   17.50
  -8   4 -13   15.50   11.20
  -8   4 -13   25.70   15.00
   8  -4 -13   19.00   14.00
  -8   4  13   34.70   18.20
  -8  -4 -13   34.80   14.00
  -8  -4 -13   28.50   13.20
   8  -4  13   12.60   11.00
  -8  -5  13    1.00   16.50
   8  -5 -13    1.30   14.10
  -8   5 -13    1.20   16.60
  -8  -5 -13   -7.20   12.20
   8  -5  13   17.40   10.50
  -8  -5 -13   -0.40   14.70
   8  -6 -13    1.40   15.00
  -8  -6  13   13.10   22.40
  -8   6 -13   38.60   19.30
  -8  -6 -13   11.90   15.40
   8  -6  13   42.20   13.60
  -8  -6 -13    1.40   13.20
   8   6 -13   18.50   25.00
  -9   0  13   10.10   13.30
  -9   0 -13   -3.00   13.70
  -9   0 -13   -7.10   12.20
  -9   1 -13  206.48   24.90
  -9  -1  13  214.48   29.90
   9  -1 -13  186.98   23.90
  -9  -1  13   71.29   33.30
  -9   1 -13  162.68   23.40
  -9  -1 -13  176.78   24.10
  -9   1  13  129.49   32.90
  -9   1  13  195.88   25.70
  -9  -1 -13  172.08   24.00
  -9   2 -13   10.10   16.90
  -9   2 -13   18.10   12.50
  -9  -2  13  -12.60   25.90
   9  -2 -13   18.10   14.60
  -9   2  13   21.70   15.00
  -9  -2 -13   14.90   14.40
  -9   2  13    3.90   23.60
  -9  -2 -13    4.70   12.50
  -9   3 -13  145.19   21.60
   9  -3 -13  130.69   23.40
  -9  -3  13  136.99   36.30
  -9   3 -13  149.88   24.50
  -9  -3 -13  131.09   22.20
  -9  -3 -13  159.78   23.30
  -9   3  13  160.38   29.50
  -9  -4  13   17.10   23.40
  -9   4 -13   -2.40   10.60
   9  -4 -13   20.90   17.40
  -9   4 -13   17.90   17.20
  -9   4  13   34.20   22.20
  -9  -4 -13   -1.30   13.90
   9  -4  13   20.80   13.80
  -9  -4 -13   15.50   17.20
   9  -5 -13  108.79   22.30
  -9  -5  13   88.79   27.20
  -9   5 -13   99.59   26.10
   9  -5  13   94.29   16.90
  -9  -5 -13   80.69   19.70
 -10   0 -13   66.99   18.40
 -10   0 -13   50.69   16.10
 -10   0  13   30.20   18.20
 -10   0  13  -34.80   23.00
 -10   1 -13    7.70   13.80
 -10  -1  13    2.10   18.20
 -10   1 -13    6.70   19.20
 -10  -1  13  -68.09   23.20
 -10  -1 -13    9.00   16.00
 -10  -1 -13   -4.20   14.20
 -10   1  13   12.00   17.20
 -10   1  13  -21.90   22.70
 -10  -2  13   14.40   20.00
 -10   2 -13   11.40   15.30
 -10   2 -13   10.90   19.40
 -10  -2  13  -57.49   29.40
  10  -2 -13   23.60   16.10
 -10   2  13   -6.00   22.40
 -10   2  13    5.40   16.60
 -10  -2 -13    8.40   15.10
 -10  -2 -13   22.60   19.20
  10  -3 -13   13.90   16.80
   0   0 -14  473.25   42.50
   0   0  14  476.15   42.90
   0   0 -14  495.45   42.40
   0   0 -14  493.15   42.70
   0   0 -14  463.95   43.00
   0  -1 -14    2.80    8.00
   0  -1 -14   -1.70    6.80
   0   1 -14   -1.40    6.60
   0   1 -14   -2.00    8.00
   0  -1  14   -4.10    4.40
   0   1 -14    5.10    9.10
   0   1 -14    6.00    5.60
   0  -1 -14   -0.90    6.80
   0   1  14  -12.30    6.10
   0   2  14   62.39    9.50
   0   2 -14  143.79   21.90
   0  -2  14   86.69   11.70
   0   2 -14   79.79   13.70
   0   2  14   88.69   11.50
   0   2 -14   88.39   15.50
   0  -2 -14   77.09    8.00
   0  -2 -14   89.29   14.20
   0  -2  14   86.79    8.70
   0  -2 -14   76.79   11.40
   0  -2 -14  117.49   15.60
   0  -3 -14   -2.80    7.60
   0   3 -14   -1.70    1.80
   0  -3 -14    1.30    9.50
   0   3  14    0.90    5.80
   0  -3 -14    1.60    2.40
   0  -3 -14    0.20    4.90
   0   3 -14   -9.30    5.80
   0   3 -14   -1.80    3.50
   0   3  14    0.70    3.40
   0   3 -14    4.60   12.80
   0  -3  14    1.70    6.20
   0  -3  14    0.30    3.60
   0  -4 -14   85.99   11.70
   0  -4  14  119.89   14.30
   0   4 -14  167.28   28.20
   0  -4 -14  152.68   18.30
   0  -4  14  126.99   11.50
   0  -4 -14  164.68   22.70
   0   4 -14   80.49   19.30
   0   4 -14  121.19   13.00
   0  -5 -14    1.60   11.50
   0  -5 -14   -2.70    5.30
   0   5 -14  -29.80   15.40
   0  -5 -14   -5.20    4.30
   0  -5 -14   -7.90   12.10
   0  -5  14   -1.60    6.90
   0   5 -14    6.60    4.10
   0  -5  14   -8.30    4.50
   0  -6 -14  205.88   31.70
   0  -6 -14  230.98   21.10
   0  -6  14  229.88   20.20
   0  -6 -14  276.67   27.60
   0  -6  14  230.88   24.90
   0   6 -14  160.58   37.20
   0  -7  14   -1.60    9.80
   0  -7 -14  -26.80   13.90
   0  -7  14   -4.00    6.00
   0  -7 -14  -13.50   11.80
   0  -7 -14   -3.70    8.10
   0  -8  14    5.60   13.70
   0  -8  14   12.80    8.10
   0  -8 -14   -1.70   18.50
   0   8 -14  -49.00   25.40
   0  -8 -14   27.50   10.40
   0   9 -14  -16.60   27.20
   0  -9 -14    2.90    9.80
   0  -9  14    3.50    9.00
   0  -9 -14   -6.20   18.40
   0  -9  14  -12.40   13.50
   0 -10  14  167.78   29.70
   0 -10  14  186.48   20.20
   0  10 -14   72.09   39.50
   0 -10 -14  121.69   19.00
   0 -10 -14  151.58   30.90
  -1   0  14    1.90    8.10
  -1   0 -14   -4.50    5.30
   1   0 -14   -6.80    5.40
   1   0  14    5.80    6.70
  -1   0 -14   10.10    5.20
   1   0 -14   -8.20    4.60
  -1   0 -14   -5.50    6.30
   1   0 -14  -16.40    6.30
   1   0 -14   -5.00    6.60
  -1   0 -14   12.20    6.40
  -1   1 -14   -2.40    5.30
   1  -1 -14  -10.70    5.70
  -1  -1  14    1.70    4.90
  -1   1 -14    9.30    4.90
   1  -1 -14   -4.50    5.50
  -1  -1  14   -3.90    5.60
  -1   1 -14   -2.00    7.70
   1  -1 -14  -13.10    6.60
   1   1  14    2.90    5.30
   1  -1 -14    6.80    3.70
  -1  -1 -14   12.60    3.80
  -1   1  14   -9.70    7.10
  -1  -1 -14    2.50    6.10
  -1  -1 -14    9.30    7.30
   1   1 -14   -4.90    7.80
   1   1 -14    3.00    3.60
   1   1 -14    1.90    6.00
  -1  -1 -14   -3.00    5.50
   1   1 -14    2.30    4.30
   1  -1  14    1.20    4.70
   1   1 -14    2.00    7.30
  -1   2 -14    9.80    9.50
   1  -2 -14   -6.40    7.00
  -1   2 -14    4.60    6.30
  -1  -2  14   13.60    7.20
   1   2  14   15.60    5.20
  -1  -2  14   10.50    3.80
   1  -2 -14    0.80    6.50
  -1   2  14    7.70    7.90
   1  -2  14   17.80    5.00
   1   2 -14    1.80    9.50
   1   2 -14   16.20    6.10
  -1   2  14   23.00    5.50
  -1  -2 -14   11.80    9.30
  -1  -2 -14   -2.10    6.00
   1   2 -14   16.30    3.80
   1   2 -14    9.90    8.70
  -1  -2 -14   11.60    5.80
   1  -2  14   17.50    5.80
   1  -3 -14  -12.00    7.40
  -1   3 -14   -2.40    3.00
   1  -3 -14  -11.80    7.70
  -1   3 -14    4.90    7.50
  -1   3 -14   12.60   13.20
  -1   3 -14    6.70   10.60
  -1  -3  14    1.90    3.50
  -1  -3  14    0.90    7.20
   1  -3  14    3.40    4.30
  -1  -3 -14   -6.30    5.90
  -1  -3 -14    6.40   10.50
   1  -3  14    5.20    5.50
   1   3 -14    2.70    5.00
  -1  -3 -14   -0.80    4.70
  -1   3  14    7.50    6.80
  -1  -3 -14    1.80    4.80
  -1   3  14   -1.80    3.60
   1   3 -14  -10.50   10.50
   1  -4 -14  -12.60    9.00
   1  -4 -14  -12.80    7.80
  -1  -4  14    7.00    3.90
  -1   4 -14    6.30    3.40
  -1  -4  14    3.00    7.10
   1  -4 -14    7.50    5.20
  -1   4 -14   44.90   21.20
  -1   4 -14   -5.10   13.10
  -1  -4 -14   -4.60    6.20
   1   4 -14   10.80    4.90
   1  -4  14   12.90    5.10
   1  -4  14    7.90    6.40
   1   4 -14  -18.70   12.90
  -1  -4 -14    1.50    6.70
  -1  -4 -14   10.50    5.20
  -1  -4 -14    9.70   11.70
   1  -5 -14  -12.20    9.30
  -1   5 -14    3.60    5.40
   1  -5 -14  -18.40    7.80
  -1  -5  14   -0.20    8.50
   1  -5 -14    1.80    5.80
  -1  -5  14    3.20    4.30
  -1   5 -14    6.30   19.60
  -1  -5 -14    2.90   13.60
  -1  -5 -14    0.30    4.70
  -1  -5 -14   -6.30    5.80
   1   5 -14  -23.30   14.50
  -1  -5 -14   -8.00    8.30
   1  -5  14   -2.30    5.50
   1  -5  14   -1.70    5.30
   1   5 -14    4.40    4.40
   1  -5  14    3.90    7.40
   1  -6 -14  -13.50    8.80
  -1  -6  14    7.40    9.10
   1  -6 -14   -1.80    6.60
   1  -6 -14   -3.70   12.10
  -1   6 -14  -18.70   12.40
  -1  -6  14    5.80    5.40
  -1   6 -14    5.30   22.30
  -1  -6 -14    4.40    7.60
   1  -6  14    2.90    6.20
   1   6 -14  -34.00   16.10
  -1  -6 -14   -6.90    8.90
  -1  -6 -14    9.00   16.80
  -1  -6 -14    3.40    5.00
   1  -6  14    6.40    9.10
   1  -7 -14    1.80    9.00
  -1  -7  14   10.90    6.70
  -1  -7  14    9.10   10.90
  -1   7 -14  -23.90   23.70
   1  -7 -14    9.90    8.20
   1  -7 -14   12.40   14.30
  -1  -7 -14  -14.80   17.60
  -1  -7 -14   11.00    8.90
   1  -7  14    3.90   11.00
   1  -7  14   11.10    7.40
   1   7 -14  -11.40   21.00
  -1  -7 -14   19.80   14.10
  -1  -8  14   -4.10   13.50
  -1   8 -14  -55.39   24.50
   1  -8 -14    6.10    9.10
  -1  -8  14   -0.60    7.70
   1  -8 -14   -3.50   14.70
   1   8 -14    2.10   24.40
   1  -8  14  -10.00    7.80
  -1  -8 -14   -4.40    9.70
   1  -8  14    1.90   11.90
  -1  -8 -14  -16.50   14.30
  -1  -8 -14  -47.50   17.30
  -1  -9  14   14.90    9.50
  -1  -9  14    7.80   15.20
   1  -9 -14   31.00   17.90
  -1   9 -14  -77.69   31.20
   1  -9 -14    7.90   10.40
   1  -9  14   20.50    9.90
  -1  -9 -14  -47.40   21.80
   1  -9  14   13.80   14.40
   1   9 -14   -5.50   30.70
  -1  -9 -14   10.10   11.90
   1 -10 -14   -4.40   12.20
   1 -10 -14   15.30   19.80
  -1 -10  14    5.80   17.50
  -1  10 -14  -37.10   31.60
  -1 -10  14   -0.10   10.00
   1 -10  14  -14.20   19.10
  -1 -10 -14   -2.70   11.30
  -1 -10 -14   -0.30   25.10
   1  10 -14   10.20   32.10
   1 -10  14    1.20   12.20
   2   0 -14   63.99    8.90
  -2   0 -14   75.59   10.90
  -2   0 -14   55.49    7.80
   2   0 -14   62.19    9.80
  -2   0  14   79.89   14.10
  -2   0 -14   61.19    8.70
   2   0  14   45.80    9.10
   2   0 -14   73.49    9.60
  -2   0  14   68.89    9.10
   2   1  14  170.28   14.80
  -2   1 -14  150.28   16.60
  -2  -1  14  152.88   15.20
  -2   1 -14  117.59   17.30
   2  -1 -14  179.18   15.50
   2  -1 -14  171.98   17.20
   2  -1 -14  177.98   17.80
  -2  -1 -14  172.58   17.20
   2   1 -14  185.48   16.90
   2   1 -14  154.88   18.60
  -2  -1 -14  173.98   16.50
   2   1 -14  164.38   15.20
  -2   1  14  122.09   20.80
   2   1 -14  181.48   14.50
  -2   1  14  154.98   14.90
  -2  -1 -14  165.78   15.30
   2  -2 -14  291.87   23.90
   2  -2 -14  294.87   27.60
  -2  -2  14  279.17   28.10
  -2   2 -14  280.27   26.20
   2  -2 -14  303.67   27.40
  -2  -2  14  253.77   24.30
  -2  -2 -14  307.97   29.90
   2   2 -14  302.17   25.80
   2  -2  14  283.17   24.60
  -2  -2 -14  296.97   26.70
   2   2 -14  299.37   24.10
  -2  -2 -14  246.88   24.50
  -2   2  14  235.38   28.70
   2   2 -14  251.27   29.50
   2   2 -14  322.47   23.50
   2  -2  14  314.77   25.10
  -2  -2 -14  317.87   25.40
  -2   3 -14   -1.00    9.50
  -2  -3  14    5.60    3.10
  -2   3 -14   -4.50    5.30
   2  -3 -14    6.30    6.80
   2  -3 -14    5.50    7.90
   2  -3 -14    1.90    3.80
  -2  -3  14   -2.50    7.20
  -2  -3 -14    1.00    5.20
  -2   3  14   21.20    4.60
  -2  -3 -14   -2.20    9.70
   2   3 -14    3.20    4.40
   2   3 -14   -7.60   10.90
  -2   3  14    2.70    7.80
   2  -3  14    1.20    5.10
   2  -3  14   -3.90    4.70
  -2  -3 -14    5.40    6.40
   2  -4 -14   67.09   14.10
   2  -4 -14   57.59   11.70
  -2   4 -14   48.20   10.20
  -2  -4  14   64.29    7.30
   2  -4 -14   65.79    8.50
  -2   4 -14   69.29   16.80
  -2  -4  14   61.09   12.20
   2  -4  14   54.69    9.60
  -2  -4 -14   67.79    9.10
  -2  -4 -14   70.49   18.30
   2   4 -14   43.50   17.60
  -2  -4 -14   54.19   11.20
  -2   4  14   78.09   13.70
   2  -4  14   69.39    8.80
   2   4 -14   64.99    8.50
  -2  -5  14   -1.60    4.10
  -2  -5  14    1.80    9.70
  -2   5 -14   14.30   19.80
  -2   5 -14  -13.50    7.50
  -2   5 -14   12.80   15.20
   2  -5 -14   -0.60   10.30
   2  -5 -14   -3.90    7.70
   2  -5 -14   -3.90    5.50
  -2  -5 -14   -6.30    7.50
   2  -5  14   -2.50    7.10
  -2  -5 -14   -2.30    5.30
   2   5 -14   -2.60   14.70
  -2  -5 -14   -1.80   14.20
   2  -5  14   -2.40    5.10
   2  -6 -14   58.49    9.60
   2  -6 -14   74.39   16.60
   2  -6 -14   63.89   11.50
  -2  -6  14   57.89    8.00
  -2  -6  14   38.20   12.70
  -2   6 -14   81.59   30.30
  -2  -6 -14   19.80   10.40
  -2  -6 -14   63.99   11.60
   2   6 -14   37.10   22.00
   2  -6  14   43.10   11.80
  -2  -6 -14  103.89   25.70
  -2  -6 -14   60.19    9.10
   2  -6  14   63.69    9.30
  -2  -7  14   44.10   15.20
   2  -7 -14   41.00   15.60
   2  -7 -14   60.59   10.60
  -2   7 -14   56.49   32.40
  -2  -7  14   54.79    8.90
   2  -7 -14   44.70   10.20
  -2  -7 -14   40.60   12.80
  -2  -7 -14   48.20   11.50
   2  -7  14   66.49   10.70
   2  -7  14   36.30   12.10
   2   7 -14   25.30   22.80
  -2  -7 -14   74.89   27.30
   2  -8 -14  208.88   29.00
  -2  -8  14  187.58   27.20
  -2  -8  14  251.97   21.20
  -2   8 -14  120.39   43.40
   2  -8 -14  205.98   21.90
   2  -8  14  221.28   27.70
  -2  -8 -14  245.88   44.70
  -2  -8 -14  230.58   29.00
   2   8 -14  188.38   40.50
  -2  -8 -14  224.38   23.00
   2  -8  14  203.28   21.60
  -2  -9  14   -6.10    9.60
  -2  -9  14   -7.60   15.30
   2  -9 -14   15.60    9.80
   2  -9 -14   13.80   19.20
  -2  -9 -14    5.50   12.20
   2  -9  14    4.90    9.10
   2   9 -14   23.60   29.70
  -2  -9 -14  -45.20   22.90
   2  -9  14  -11.00   13.80
  -2 -10  14   20.60   13.70
   2 -10 -14   38.40   14.10
   2 -10  14   43.70   14.30
  -2 -10 -14   43.30   15.50
  -3   0 -14    9.20    4.90
  -3   0  14   10.50   11.60
   3   0 -14   17.60    5.20
  -3   0 -14   11.80    6.80
   3   0 -14   18.20    7.30
   3   0 -14   16.30    6.40
  -3   1 -14   11.40    5.70
  -3   1 -14    6.00    7.20
   3  -1 -14   24.60    7.70
   3  -1 -14   19.40    6.30
   3  -1 -14   11.90    3.10
  -3  -1  14    4.40   10.10
  -3   1  14   14.90    4.90
   3   1 -14   17.30    5.80
   3   1 -14    9.10    2.30
  -3  -1 -14   11.80    6.10
   3   1 -14   15.50    5.50
  -3   1  14   -3.20    9.70
  -3  -1 -14    5.20    5.80
   3  -1  14    3.60    3.20
  -3  -1 -14   12.30    3.60
   3   1 -14   18.70    8.80
  -3   2 -14    8.30    5.90
  -3   2 -14    5.90    8.80
   3  -2 -14    7.50    3.30
  -3  -2  14    0.00    8.90
  -3  -2  14    5.40    3.80
   3  -2 -14   15.00    7.40
   3  -2 -14    6.50    5.80
   3   2 -14   10.40    4.70
   3   2 -14    9.50    5.50
  -3  -2 -14    4.90    3.60
   3   2 -14    6.30   10.00
   3  -2  14    4.40    5.60
  -3  -2 -14    7.80    5.70
  -3  -2 -14    3.30    6.20
   3  -2  14    7.10    4.20
  -3   2  14    1.80   10.30
   3   2 -14    8.50    1.90
  -3   2  14    9.20    3.60
   3  -3 -14   -2.90    3.70
  -3  -3  14  -10.70    8.10
  -3  -3  14    4.00    2.80
   3  -3 -14    4.80    5.70
  -3   3 -14   -2.70    5.30
  -3   3 -14   -9.10   10.00
   3  -3 -14   -2.20    6.90
  -3  -3  14   -0.90    3.00
  -3  -3 -14    3.30    5.80
  -3  -3 -14    9.80   11.40
  -3  -3 -14   -3.80    4.00
  -3  -3 -14    1.10    6.40
   3  -3  14   -1.00    5.50
   3   3 -14    2.30    2.20
   3  -3  14    3.90    4.60
   3   3 -14   -0.10    4.80
  -3   3  14   -2.00    2.30
   3   3 -14    0.30   10.30
  -3   3  14    9.00    9.70
  -3   3  14   15.20    3.70
  -3  -4  14    2.00    3.10
  -3   4 -14   -2.80    5.70
   3  -4 -14   -0.70    8.60
  -3   4 -14  -15.40   10.00
  -3  -4  14   -3.00    9.00
   3  -4 -14    2.30    6.70
   3  -4 -14   -2.70    4.10
  -3  -4 -14   -7.50    5.70
  -3   4  14    6.40    9.30
   3  -4  14   -4.40    5.50
  -3  -4 -14    8.30   13.20
   3   4 -14    3.40   12.90
   3  -4  14   -0.80    6.20
  -3  -4 -14  -10.00    6.80
  -3  -5  14    8.80   10.00
   3  -5 -14   12.30    5.90
  -3   5 -14    5.10    5.40
  -3   5 -14   12.50   14.30
   3  -5 -14   16.80   11.10
   3  -5 -14   17.70    6.90
  -3  -5  14    8.80    4.10
  -3  -5 -14   24.60    7.10
  -3  -5 -14   15.70    8.50
   3  -5  14   11.50    6.20
   3   5 -14   17.60   16.50
  -3  -5 -14   13.90   17.10
  -3   6 -14   26.40   24.90
   3  -6 -14    2.80   11.60
  -3  -6  14    8.50   11.20
  -3   6 -14   -4.60   19.30
   3  -6 -14   -0.20    6.60
  -3  -6  14    5.60    5.10
   3  -6 -14    3.70    7.00
  -3  -6 -14    1.00    9.00
   3  -6  14    6.20    7.50
  -3  -6 -14   29.20   21.40
   3   6 -14    5.00   20.70
  -3  -6 -14    3.40    6.90
  -3   7 -14   22.70   33.00
  -3  -7  14    9.70   12.50
   3  -7 -14   10.20    7.10
  -3  -7  14    0.70    5.80
   3  -7 -14    3.70   14.50
   3  -7 -14    6.20    8.10
  -3  -7 -14   -6.00    8.60
   3   7 -14    5.60   21.40
  -3  -7 -14   16.40   25.80
   3  -7  14    5.00    8.40
  -3  -7 -14    1.40   11.40
  -3  -8  14   -4.80    7.10
  -3  -8  14   -5.40   15.80
  -3   8 -14   11.10   34.10
  -3   8 -14  -47.90   19.80
   3  -8 -14   27.30   16.20
   3  -8 -14    6.70    9.20
  -3  -8 -14   12.50   11.40
  -3  -8 -14  -12.10   27.50
   3   8 -14    0.30   26.50
   3  -8  14    3.30    9.40
  -3  -8 -14   -6.00   10.90
   3  -9 -14   10.30   17.10
  -3   9 -14  -20.50   34.60
  -3  -9  14   11.20   16.90
   3  -9 -14    8.30   10.90
  -3  -9 -14   -3.50   31.20
   3   9 -14   21.50   30.00
  -3  -9 -14    6.20   11.70
   3  -9  14   21.00   11.40
   4   0 -14  198.28   17.20
   4   0 -14  233.98   21.00
  -4   0 -14  225.38   20.90
  -4   0  14  273.97   28.40
   4   0 -14  224.98   20.90
  -4   0 -14  198.98   20.80
   4  -1 -14  115.79   11.00
  -4  -1  14  135.39   21.70
   4  -1 -14  134.59   14.80
  -4   1 -14  128.09   14.30
   4  -1 -14  129.89   14.60
  -4   1 -14  131.89   16.10
  -4  -1 -14  141.29   14.80
   4   1 -14  136.59   14.10
   4   1 -14  125.19   14.50
  -4   1  14  108.69   21.90
  -4  -1 -14  130.99   14.90
   4   1 -14  146.79   18.50
  -4   2 -14  103.09   15.10
  -4   2 -14   96.89   11.50
   4  -2 -14   94.29   13.10
   4  -2 -14   85.19    8.60
   4  -2 -14  106.69   12.30
  -4  -2  14   45.30   14.90
  -4  -2 -14   90.39    8.60
   4  -2  14   96.39    9.40
  -4  -2 -14  106.39   13.30
  -4  -2 -14   91.19   12.80
   4  -2  14   94.89   12.30
   4  -2  14   93.19    9.40
  -4  -2 -14   83.09    8.50
   4   2 -14   99.29   11.30
   4   2 -14  113.59   18.00
  -4   2  14   81.79   10.60
  -4   2  14   51.49   16.60
   4  -3 -14   91.99    9.30
  -4   3 -14   95.39   11.60
  -4  -3  14   97.59   17.80
  -4   3 -14   90.09   17.70
  -4  -3  14   85.89    9.60
   4  -3 -14   86.09   12.30
   4  -3 -14  110.79   14.30
  -4   3  14   81.09   10.30
  -4   3  14  108.59   18.50
   4   3 -14  114.49   19.90
   4  -3  14   89.49   10.60
  -4  -3 -14   83.39   13.10
  -4  -3 -14   80.59    9.30
  -4  -3 -14   99.79   12.60
   4  -3  14   90.89   11.70
   4  -4 -14  193.68   21.50
   4  -4 -14  178.58   16.60
  -4  -4  14  177.08   15.30
   4  -4 -14  181.48   18.80
  -4  -4  14  183.88   23.30
  -4   4 -14  174.58   17.80
  -4  -4 -14  191.98   18.70
  -4   4  14  184.38   23.70
  -4   4  14  174.48   15.90
  -4  -4 -14  203.78   28.20
   4  -4  14  184.28   18.10
   4   4 -14  179.78   26.80
  -4  -4 -14  186.28   20.10
  -4  -5  14   40.90   14.20
   4  -5 -14   41.20    7.90
  -4  -5  14   49.50    6.00
   4  -5 -14   55.19   13.80
   4  -5 -14   47.00    9.80
  -4   5 -14   24.20   16.50
  -4   5 -14   45.50    8.70
   4  -5  14   51.89    9.40
   4   5 -14   57.69   22.00
  -4  -5 -14   41.20   11.20
  -4  -5 -14   48.00   21.30
  -4  -5 -14   39.30   10.10
  -4  -6  14  115.99   20.50
   4  -6 -14  113.09   20.00
  -4  -6  14  119.99   11.70
  -4   6 -14  163.38   30.40
   4  -6 -14  121.99   13.60
   4  -6 -14  112.19   14.30
  -4  -6 -14  120.49   31.30
  -4  -6 -14  112.99   17.10
   4  -6  14  115.39   14.60
  -4  -6 -14  118.99   15.60
   4   6 -14  113.89   28.30
   4  -7 -14   15.80    8.10
  -4  -7  14    8.50   16.00
  -4   7 -14   64.39   33.30
   4  -7 -14   15.20   14.00
  -4   7 -14   11.30   23.30
  -4  -7 -14   33.10   28.70
   4   7 -14   13.60   22.80
  -4  -7 -14   -2.10   10.60
  -4  -7 -14    5.80   10.80
  -4  -7 -14    1.10    9.10
   4  -7  14    6.90    9.30
  -4   8 -14  113.69   44.50
  -4  -8  14   81.39   21.60
   4  -8 -14  118.79   15.70
   4  -8 -14   89.79   21.40
  -4  -8 -14  224.48   48.40
  -4  -8 -14   95.19   17.30
  -4  -8 -14   97.89   19.50
   4  -8  14  107.19   15.20
   4   8 -14  103.29   33.40
  -4   9 -14   77.29   44.70
  -4   9 -14  -12.20   26.60
   4  -9 -14   49.50   12.90
   4  -9 -14   38.90   18.60
  -4  -9  14   41.00   20.80
  -4  -9 -14   61.99   15.20
   4  -9  14   45.40   13.90
   4   9 -14   49.99   32.90
  -4  -9 -14   75.59   43.30
  -5   0  14    0.50   15.20
  -5   0 -14    5.80    8.10
   5   0 -14   11.50    8.30
  -5   0 -14    0.40    6.30
  -5  -1  14    9.90   13.60
   5  -1 -14    4.70    2.50
  -5   1 -14    3.40    9.30
   5  -1 -14    8.30    7.60
  -5   1 -14    2.30    6.30
   5   1 -14    6.30   11.30
   5   1 -14    4.10    7.30
  -5   1  14  -19.90   11.90
  -5  -1 -14   11.90    9.20
  -5  -1 -14    6.10    5.50
  -5   2 -14   -8.10    8.70
   5  -2 -14   -3.10    3.00
  -5  -2  14  -12.90   10.70
  -5   2 -14   -5.90    5.40
   5  -2 -14    0.90    7.90
   5  -2  14    1.60    3.10
   5  -2  14  -14.30    7.30
  -5  -2 -14    0.50    5.70
   5   2 -14    9.30    7.10
  -5  -2 -14   -0.30    8.50
  -5   2  14  -16.40   11.90
   5   2 -14    1.40   12.40
  -5   3 -14   18.70    6.70
   5  -3 -14   25.50   10.00
  -5   3 -14   14.20   11.10
  -5  -3  14    0.40   12.10
   5  -3 -14   11.80    4.50
  -5  -3 -14    1.80    5.10
  -5   3  14   22.20    7.00
  -5   3  14   24.00   13.70
   5  -3  14   23.10    7.50
  -5  -3 -14   37.10    9.80
   5   3 -14   25.90   14.90
  -5  -3 -14   22.90    8.80
  -5  -4  14  -12.60   13.20
   5  -4 -14    6.90   10.20
   5  -4 -14    6.00    5.00
  -5   4 -14    0.80   11.90
  -5   4 -14    2.50    5.80
  -5  -4 -14    0.40    6.00
   5   4 -14   12.20   15.00
  -5   4  14    5.10   12.30
  -5   4  14    1.00    5.50
  -5  -4 -14    1.80    8.50
  -5  -4 -14   -5.50    7.40
   5  -4  14    0.70    7.80
   5  -5 -14    2.10    5.70
  -5   5 -14  -20.70   12.40
  -5  -5  14   -1.30   12.80
   5  -5 -14    4.40   10.80
  -5   5 -14    1.80    6.60
   5  -5  14   -4.40    8.10
  -5  -5 -14    6.10    8.00
  -5   5  14   10.20   12.60
  -5  -5 -14   30.70   22.20
  -5  -5 -14    1.40    9.40
  -5  -5 -14    6.50    9.10
   5   5 -14   15.60   18.40
  -5  -6  14    3.60   16.00
   5  -6 -14    9.20    7.20
   5  -6 -14   11.40   12.20
  -5   6 -14   -6.30   15.20
  -5  -6 -14    6.20   10.50
  -5  -6 -14   25.40   22.00
   5  -6  14    5.00    8.30
  -5  -6 -14    3.40   10.00
  -5  -6 -14   -1.40    9.80
   5   6 -14   17.20   21.60
   5  -7 -14   15.70    8.90
  -5  -7  14   27.00   17.00
  -5   7 -14   37.00   25.20
   5  -7 -14   32.80   15.00
   5  -7  14   20.70   10.00
  -5  -7 -14   42.10   12.80
   5   7 -14   38.60   28.40
  -5  -7 -14   37.80   13.40
  -5  -7 -14   43.10   29.00
  -5  -7 -14   25.00   10.80
  -5  -7 -14   10.70   11.70
  -5  -8  14   14.00   20.20
  -5   8 -14   48.10   38.40
   5  -8 -14   10.60   10.00
   5  -8 -14    8.00   15.60
  -5   8 -14  -23.50   26.40
  -5  -8 -14   37.50   37.70
  -5  -8 -14   14.60   12.90
   5   8 -14   23.90   28.10
   5  -8  14   -3.80   10.80
  -5  -8 -14    2.20   11.00
   6   0 -14  429.16   37.80
  -6   0  14  434.76   46.10
  -6   0 -14  397.56   37.10
  -6   0 -14  404.96   37.50
  -6  -1  14  105.89   24.30
   6  -1 -14  102.09   16.40
  -6   1 -14  100.39   16.10
  -6   1 -14  100.49   14.20
   6   1 -14  117.99   16.00
  -6  -1 -14   89.89   15.00
  -6  -1 -14  104.79   15.10
  -6   2 -14  131.49   18.60
  -6   2 -14  126.09   15.30
   6  -2 -14  119.99   17.20
  -6  -2  14   91.89   22.70
   6  -2 -14  115.79   11.50
   6   2 -14  150.98   25.10
  -6  -2 -14  146.59   18.50
  -6  -2 -14  129.49   16.60
  -6   2  14   89.29   24.80
   6  -2  14  123.89   16.80
   6  -3 -14   -1.10    4.40
  -6   3 -14    2.80    6.60
   6  -3 -14   13.30   10.70
  -6  -3  14  -15.50   11.80
  -6   3 -14   -2.80   12.60
  -6   3  14    4.70   16.40
   6  -3  14   -3.30    7.40
  -6  -3 -14   -2.60   10.70
   6   3 -14   11.30   14.60
  -6   3  14    3.30    7.60
  -6  -3 -14    0.60    8.80
   6  -4 -14  145.89   14.40
  -6   4 -14  150.88   24.60
  -6  -4  14  101.29   23.80
   6  -4 -14  166.88   20.60
  -6   4 -14  140.69   17.10
   6  -4  14  134.39   16.20
  -6  -4 -14  157.68   19.80
   6   4 -14  190.78   31.70
  -6   4  14  157.58   24.70
  -6  -4 -14  122.39   16.70
   6  -5 -14   19.70   12.60
   6  -5 -14    6.30    6.50
  -6   5 -14    7.00    7.50
  -6   5 -14    6.10   15.90
  -6  -5  14    8.80   16.20
  -6  -5 -14   14.20   10.70
   6   5 -14   13.90   19.10
  -6  -5 -14    5.90   11.90
  -6   5  14   26.00   15.30
   6  -5  14   12.40    9.80
  -6   6 -14  105.09   27.50
  -6  -6  14  224.68   33.40
   6  -6 -14  201.98   19.40
   6  -6 -14  214.68   26.00
   6   6 -14  226.98   38.60
  -6  -6 -14  168.58   23.30
  -6  -6 -14  211.78   40.40
  -6  -6 -14  214.78   24.80
   6  -6  14  225.98   22.20
   6  -7 -14   49.20   10.90
  -6  -7  14   43.40   20.30
  -6   7 -14   70.89   26.30
   6  -7 -14   44.30   17.50
  -6  -7 -14   38.90   15.60
  -6  -7 -14   16.40   11.60
   6   7 -14   27.40   26.20
  -6  -7 -14   66.29   28.60
   6  -7  14   38.50   13.00
  -6  -7 -14   49.20   15.20
  -6   8 -14   37.20   32.40
   6  -8 -14   54.89   12.70
  -6  -8  14   54.79   23.60
   6  -8 -14   42.40   18.50
  -6  -8 -14   48.80   14.60
   6  -8  14   49.50   14.60
  -6  -8 -14   44.00   15.50
   6   8 -14   49.80   34.00
  -6  -8 -14  100.49   36.30
   7   0 -14    8.00   10.70
  -7   0 -14    5.10    9.40
  -7   0  14  -13.70   17.90
  -7   0 -14   -0.60   10.90
  -7   1 -14   10.30    9.00
  -7  -1  14   14.30   20.20
  -7   1 -14   29.40   12.30
   7  -1 -14   22.30   11.20
  -7  -1 -14   21.10   10.40
  -7   1  14  -37.40   18.10
  -7  -1 -14   21.90   11.40
   7   1 -14   17.50   11.40
  -7  -2  14  -13.00   17.10
  -7   2 -14    5.40   11.70
  -7   2 -14   -3.40    8.00
   7  -2 -14   10.00   11.30
  -7   2  14  -13.30   16.60
  -7  -2 -14   -0.60   10.60
  -7   2  14    1.50    9.60
  -7  -2 -14   -4.80    9.40
  -7   3 -14    0.90   13.90
  -7  -3  14    0.20   15.50
   7  -3 -14   24.00   13.60
  -7   3 -14    2.30    9.20
  -7  -3 -14    3.60   10.30
  -7   3  14    3.60    9.60
  -7   3  14   10.10   17.90
  -7  -3 -14    3.80   12.50
   7  -3  14    1.80   10.40
  -7  -4  14   -8.10   14.60
   7  -4 -14   11.40   13.10
  -7   4 -14    3.80   13.40
  -7   4 -14   -4.90    8.60
   7   4 -14    4.90   20.30
  -7  -4 -14   -0.60   12.60
  -7  -4 -14    3.30   10.70
  -7   4  14    1.50   17.40
   7  -4  14    0.10   10.00
   7  -5 -14   26.00    8.20
  -7   5 -14   23.70   17.10
  -7  -5  14   17.40   17.20
   7  -5 -14   25.90   14.50
  -7   5 -14   17.00    9.50
  -7  -5 -14   32.50   12.90
   7  -5  14   28.30   11.90
  -7  -5 -14   14.10   11.90
  -7   5  14   40.90   18.10
   7   5 -14   20.80   21.10
   7  -6 -14   -2.60   14.40
  -7  -6  14    2.50   20.60
  -7   6 -14   29.30   17.10
   7  -6 -14    6.80    8.30
  -7  -6 -14  -16.20   13.00
  -7  -6 -14   -2.50   11.80
   7   6 -14    6.50   23.70
  -7  -6 -14   49.30   26.40
   7  -6  14   -4.30   10.90
  -7  -7  14   18.10   24.00
   7  -7 -14   11.80   16.20
   7  -7 -14    8.20    9.70
  -7   7 -14   29.20   21.60
   7  -7  14   13.00   12.20
  -7  -7 -14   75.99   30.10
  -7  -7 -14   24.10   15.00
   7   7 -14    5.00   26.70
  -7  -7 -14    7.20   11.90
  -7  -7 -14    6.50   13.10
  -8   0 -14   52.29   14.00
  -8   0 -14   68.99   18.00
   8   0 -14   84.29   16.10
  -8   0  14   -4.80   22.80
  -8  -1  14  -23.80   24.20
  -8   1 -14   -0.90    9.90
  -8   1 -14    1.90   14.40
   8  -1 -14    5.30   11.90
  -8   1  14   10.40   13.20
  -8  -1 -14    0.70   11.00
  -8  -1 -14   -2.90   12.10
   8  -2 -14  307.67   33.60
  -8   2 -14  351.66   33.70
  -8  -2  14  380.16   50.19
  -8   2 -14  334.57   34.20
  -8   2  14  344.17   33.40
  -8  -2 -14  331.67   33.60
  -8  -2 -14  323.67   33.20
  -8   2  14  275.17   41.30
  -8  -3  14   21.60   24.00
  -8   3 -14   26.50   15.10
   8  -3 -14   23.20   15.60
  -8   3 -14   12.90   10.30
  -8   3  14   16.10   20.80
  -8  -3 -14    9.70   12.50
  -8  -3 -14   20.90   15.00
   8  -3  14   22.00   13.00
  -8   4 -14  124.59   18.20
  -8  -4  14   71.99   25.20
   8  -4 -14  163.08   24.00
  -8   4 -14  153.58   26.80
  -8  -4 -14  169.08   22.20
   8  -4  14  132.19   19.00
  -8  -4 -14  134.39   20.90
  -8   4  14  168.78   30.70
   8  -5 -14   19.40   17.00
  -8  -5  14   13.30   20.00
  -8   5 -14   13.00   16.30
  -8   5  14    2.40   19.70
  -8  -5 -14    4.80   15.40
   8  -5  14    4.30   10.70
  -8  -5 -14    9.20   12.80
  -8  -6  14   65.89   24.60
   8  -6 -14   46.70   20.50
  -8   6 -14   69.79   20.80
  -8  -6 -14   60.69   18.90
  -8  -6 -14   44.20   15.90
   8   6 -14   52.59   29.40
   8  -6  14   44.20   13.40
  -9   0 -14   -3.40   16.10
  -9   0 -14   -6.90   12.30
  -9   0  14    0.80   14.40
  -9   1 -14   25.80   13.00
   9  -1 -14   21.00   14.20
  -9  -1  14  -31.70   23.50
  -9   1 -14   22.40   17.60
  -9  -1  14    2.50   16.00
  -9   1  14  -37.80   23.70
  -9   1  14   26.60   15.80
  -9  -1 -14    5.30   10.40
  -9  -1 -14   30.10   16.60
  -9   2 -14   -0.90   11.60
  -9   2 -14   14.70   18.40
  -9  -2  14  -16.00   29.50
   9  -2 -14   14.40   14.70
  -9   2  14  -16.30   20.80
  -9   2  14   -6.20   13.80
  -9  -2 -14    1.10   13.10
  -9  -2 -14    1.20   14.00
  -9   3 -14   15.00   18.10
  -9   3 -14   -3.70   10.80
  -9  -3  14    4.50   25.80
   9  -3 -14   22.00   16.00
  -9  -3 -14   26.30   16.80
  -9  -3 -14    3.40   13.50
  -9   3  14   17.80   23.40
  -9   4 -14   -1.70   10.90
  -9   4 -14   11.10   18.70
   9  -4 -14   11.80   16.00
  -9  -4  14   -9.00   26.10
  -9  -4 -14    3.30   14.50
  -9   4  14    9.60   22.40
  -9  -4 -14    5.00   13.90
   9  -4  14   24.10   14.20
   9  -5 -14   26.20   17.60
 -10   0 -14  284.77   35.90
 -10   0 -14  223.78   29.80
 -10   0  14  231.48   32.90
 -10   1 -14   -3.30   13.10
 -10  -1  14   14.90   19.80
 -10   1 -14   11.00   16.60
 -10   1  14   -1.40   17.30
 -10   1  14  -40.00   27.30
 -10  -1 -14    2.90   14.10
 -10  -1 -14    0.60   18.80
 -10  -2  14   -2.60   33.40
  10  -2 -14   67.89   19.60
 -10  -2  14   77.79   23.20
 -10   2 -14   69.59   22.90
 -10   2  14   32.80   30.60
 -10  -2 -14   57.29   18.80
   0   0  15    4.20    7.60
   0   0 -15    3.10    8.30
   0   0 -15   15.70    7.90
   0   0 -15   11.30    7.80
   0   0 -15   -3.10    7.50
   0  -1 -15   -1.20    7.30
   0   1 -15    1.20    6.20
   0  -1 -15    0.70    7.00
   0   1 -15    1.20    9.70
   0  -1 -15    1.40    7.30
   0  -1  15   -8.20    4.90
   0   1 -15    0.50    7.70
   0   1 -15    6.70    8.70
   0   1  15   -7.60    7.10
   0  -2 -15  103.49   12.70
   0  -2  15   98.39   10.20
   0   2 -15  150.68   20.00
   0  -2 -15  134.89   16.60
   0   2  15  103.09   13.70
   0  -2 -15   80.99    9.00
   0  -2  15   97.89   13.20
   0  -2 -15  107.19   15.20
   0   2 -15   81.09   14.20
   0   2 -15  134.49   19.40
   0   3 -15   -6.30    3.90
   0   3 -15  -23.10   10.70
   0  -3 -15   -2.90    5.60
   0  -3  15    6.70    6.70
   0  -3  15    0.30    4.10
   0   3  15   -1.20    4.00
   0   3 -15   -1.50    2.20
   0  -3 -15   -3.20    8.20
   0  -3 -15   -1.60    9.40
   0   3  15    8.50    6.70
   0   3 -15    5.60   13.60
   0  -4  15   17.00    8.30
   0  -4 -15   19.30   12.70
   0  -4  15   15.60    5.00
   0   4 -15   17.80    6.70
   0  -4 -15   19.20   10.30
   0  -4 -15   26.10    6.40
   0   4  15   18.30    4.00
   0   4 -15   25.90   18.30
   0  -5 -15  -11.10   12.70
   0  -5 -15   -7.70   10.30
   0   5 -15  -12.50   17.50
   0  -5  15   -2.40    8.00
   0  -5 -15   -7.90    4.90
   0   5 -15    3.90    4.80
   0  -5 -15    2.60    5.90
   0  -5  15   -9.80    4.60
   0   6 -15   31.30   25.60
   0  -6 -15   79.29   16.60
   0  -6 -15   89.69   11.40
   0  -6 -15   46.60   19.60
   0  -6  15   59.49    9.40
   0  -6  15   72.99   14.30
   0  -7  15   -0.50   10.20
   0  -7 -15  -14.10   12.70
   0  -7 -15   -4.30    8.40
   0  -7 -15  -39.00   13.50
   0  -7  15   -0.20    7.10
   0  -8 -15  -26.40   16.90
   0  -8  15   -0.40   13.70
   0  -8 -15   -2.40    9.90
   0  -8  15    7.80    8.60
   0  -9  15   -0.30    8.70
   0  -9  15   -6.20   16.00
   0  -9 -15  -31.10   17.70
   0  -9 -15   -2.10   10.00
   0   9 -15  -54.29   25.50
   0 -10  15   23.20   18.20
   0 -10  15   30.20   12.20
   0 -10 -15    7.50   25.10
   0 -10 -15   28.10   13.90
  -1   0 -15   -6.60    5.40
   1   0 -15  -15.60    6.70
   1   0 -15   -6.70    5.80
   1   0 -15  -20.60    6.50
   1   0  15   13.70    7.90
  -1   0 -15    2.30    5.00
  -1   0 -15  -11.00    5.20
   1   0 -15  -15.00    5.80
  -1   0 -15    8.10    6.30
  -1   0  15    1.10    8.70
  -1   1 -15  107.79   14.60
   1   1  15  112.39   13.20
  -1  -1  15  132.49   13.60
   1  -1 -15  118.79   11.40
   1  -1 -15  135.69   17.40
   1  -1 -15  108.59   15.80
  -1  -1  15   74.99   14.00
   1  -1 -15   90.49   13.40
  -1   1 -15   88.49   14.10
   1   1 -15   89.59   14.30
   1   1 -15   96.19   16.60
  -1  -1 -15   91.39   13.70
   1   1 -15  128.59   17.20
  -1  -1 -15   99.59   13.30
  -1   1  15  137.59   17.40
  -1  -1 -15  127.59   12.00
   1  -1  15   89.09   12.10
   1   1 -15   85.09   12.10
  -1  -1 -15  133.39   15.60
  -1   2 -15  112.99   16.90
  -1  -2  15   80.99   12.80
  -1   2 -15   82.19   13.30
  -1  -2  15   77.89    8.70
   1   2  15   86.19   10.80
   1  -2 -15   56.49   13.60
   1  -2 -15   56.79   11.00
   1  -2 -15   72.99   13.50
   1  -2  15   75.59    8.80
  -1  -2 -15  100.79   16.40
   1  -2  15   88.59   11.40
   1   2 -15   52.59   13.80
   1   2 -15   85.39    8.90
  -1  -2 -15   56.79   11.80
  -1   2  15  102.29    9.90
   1   2 -15   74.69   11.70
  -1  -2 -15   84.49   11.60
  -1   2  15   77.99   14.90
   1   2 -15   68.99   16.60
  -1   3 -15  429.86   34.10
  -1   3 -15  442.76   36.40
  -1   3 -15  321.27   29.30
  -1  -3  15  369.86   29.30
  -1  -3  15  371.46   32.50
   1  -3 -15  290.07   33.90
   1   3 -15  358.76   31.40
   1  -3  15  356.06   31.20
  -1  -3 -15  435.46   36.70
  -1  -3 -15  333.37   30.60
   1   3 -15  250.77   36.80
  -1   3  15  413.96   34.20
   1  -3  15  369.36   29.80
  -1  -3 -15  311.77   30.70
  -1  -4  15  178.38   18.30
  -1   4 -15  179.08   22.80
   1  -4 -15   93.39   20.50
   1  -4 -15  154.08   14.50
  -1   4 -15  111.29   17.90
   1  -4 -15  131.49   20.40
  -1  -4  15  155.88   13.80
  -1   4 -15  248.78   32.00
  -1   4 -15  138.89   13.50
   1  -4  15  149.39   17.00
   1   4 -15  167.08   15.60
   1  -4  15  167.28   14.70
   1   4 -15   98.29   25.70
  -1  -4 -15  200.68   23.90
  -1   4  15  151.18   12.70
  -1  -4 -15  162.28   15.00
   1  -5 -15   44.40   16.30
  -1  -5  15   84.29    9.10
   1  -5 -15   35.50   13.50
  -1  -5  15   67.99   12.90
   1  -5 -15   98.09   11.00
  -1   5 -15   82.39   11.30
  -1   5 -15  129.19   29.40
  -1  -5 -15  108.39   22.00
   1  -5  15   82.39    9.90
  -1  -5 -15   49.40   13.10
  -1  -5 -15   82.79    9.80
   1   5 -15   80.49    9.70
   1   5 -15   29.00   21.60
   1  -5  15   59.39   11.40
  -1   6 -15   66.69   28.90
  -1  -6  15   55.89   12.80
   1  -6 -15   32.10   16.10
   1  -6 -15   55.99    9.90
  -1  -6  15   73.69    8.80
   1  -6 -15   12.40   11.40
  -1  -6 -15   55.39   14.20
  -1  -6 -15   43.20   20.40
  -1  -6 -15   49.40   10.90
   1  -6  15   51.89    9.00
   1  -6  15   60.19   12.40
   1  -7 -15  119.59   19.70
   1  -7 -15  107.09   25.60
  -1  -7  15  186.88   15.80
  -1  -7  15  129.79   20.20
   1  -7 -15  145.39   16.60
  -1   7 -15  103.19   36.90
   1   7 -15   69.29   30.80
  -1  -7 -15  128.89   30.20
  -1  -7 -15  155.88   17.50
  -1  -7 -15  196.08   25.50
   1  -7  15  155.18   15.90
   1  -7  15  154.88   21.50
  -1  -8  15   13.30    8.10
  -1  -8  15    0.70   12.70
   1  -8 -15  -10.90   18.70
  -1   8 -15  -25.00   27.70
   1  -8 -15    6.80    9.30
   1  -8  15    8.10    8.80
  -1  -8 -15    0.30   16.50
  -1  -8 -15    5.80   10.20
   1  -8  15    1.00   11.90
   1   8 -15  -40.10   26.90
  -1  -8 -15  -47.90   18.80
  -1  -9  15  140.49   15.60
   1  -9 -15  103.89   16.10
  -1  -9  15   93.89   21.30
   1  -9 -15   69.09   25.60
  -1  -9 -15  106.49   17.50
   1   9 -15   49.20   34.00
   1  -9  15   97.39   21.90
   1  -9  15  105.79   15.40
   1 -10 -15    6.80   12.20
  -1 -10  15    9.90   14.00
  -1 -10 -15    1.00   13.50
   1 -10  15   17.10   12.00
  -2   0 -15    0.80    7.40
   2   0 -15    1.60    5.80
   2   0 -15   -4.20    5.40
  -2   0  15   -3.10    8.20
   2   0 -15   12.70    3.60
  -2   0 -15   -3.10    5.50
  -2   0 -15   -8.20    3.60
  -2   0  15   -0.60    4.30
   2   0 -15    6.70    6.00
   2   0  15  -11.90    5.00
   2  -1 -15   81.69   12.00
   2   1  15   86.99    9.10
  -2   1 -15   76.99   11.50
   2  -1 -15   89.09   13.00
  -2   1 -15   60.99   12.70
  -2  -1  15   61.99    9.50
   2  -1 -15   75.99    9.50
  -2  -1 -15   82.29   11.70
  -2  -1 -15   82.39   11.80
   2   1 -15   84.39    9.80
   2   1 -15   82.09   11.30
  -2   1  15   79.49   16.60
   2   1 -15   85.89    9.00
   2   1 -15   70.69   13.50
  -2  -2  15    6.40    9.00
  -2   2 -15    0.00    5.60
  -2   2 -15   -5.50    8.40
  -2  -2  15    7.90    4.30
   2  -2 -15    2.80    7.10
   2  -2 -15    9.30    7.70
   2   2 -15    0.60    8.70
  -2  -2 -15    8.00    6.00
  -2   2  15   -4.00   10.50
   2  -2  15    7.20    5.00
  -2  -2 -15    7.40    9.20
  -2  -2 -15    7.00    4.70
   2   2 -15   13.50    5.70
  -2  -2 -15   12.10    6.70
   2   2 -15    5.20    2.90
   2  -2  15    5.80    4.90
   2   2 -15    8.40    3.70
  -2  -3  15   40.90   10.90
   2  -3 -15   38.00   10.10
  -2   3 -15   20.50   11.40
   2  -3 -15   35.70   11.70
   2  -3 -15   39.80    6.20
  -2   3 -15   12.00    7.10
  -2  -3  15   55.79    5.90
  -2   3  15   33.90   11.30
   2   3 -15   19.50   14.50
  -2  -3 -15   32.50   13.40
  -2  -3 -15   38.10    9.30
  -2  -3 -15   32.00    7.30
   2   3 -15   34.80    7.10
   2  -3  15   39.50    7.70
   2  -3  15   37.50    6.90
  -2   4 -15   62.19   11.50
   2  -4 -15   53.69   12.00
  -2  -4  15   70.39    7.40
   2  -4 -15   49.60   13.70
   2  -4 -15   65.39    8.70
  -2  -4  15   68.89   13.00
  -2   4 -15   91.39   19.60
  -2   4  15   79.19   14.30
  -2  -4 -15   71.49   18.30
   2  -4  15   62.99   10.20
   2   4 -15   25.90   16.80
   2   4 -15   67.69    9.10
  -2  -4 -15   47.60   11.30
   2  -4  15   78.19    9.70
  -2  -4 -15   63.49    9.40
  -2  -5  15   -3.50    8.80
   2  -5 -15  -10.60   10.30
  -2   5 -15   -3.30   16.60
  -2   5 -15   -0.20    8.10
  -2   5 -15   15.50   19.80
  -2  -5  15    4.30    4.40
   2  -5 -15    4.00    5.80
   2  -5 -15    1.30    7.60
   2  -5  15   -0.50    7.30
   2  -5  15   -2.50    6.00
  -2  -5 -15    8.40   15.50
   2   5 -15  -23.00   16.90
  -2  -5 -15   -5.00    9.20
  -2  -5 -15    1.00    5.90
  -2   6 -15   28.00   24.90
   2  -6 -15   12.00    9.40
  -2  -6  15    8.70   10.80
   2  -6 -15    3.70   13.30
   2  -6 -15   14.00    7.40
  -2   6 -15  -21.20   15.00
  -2  -6  15   15.00    5.50
   2  -6  15   11.30    9.40
   2  -6  15   11.80    6.50
   2   6 -15  -13.30   20.90
  -2  -6 -15   16.00    7.10
  -2  -6 -15    3.80    8.90
  -2  -6 -15    9.40    9.20
  -2  -6 -15   27.80   22.10
   2  -7 -15   -0.50   14.10
  -2  -7  15    8.10   12.20
  -2  -7  15    6.00    6.40
  -2   7 -15   10.90   28.90
   2  -7 -15    6.00    8.60
   2  -7 -15   12.20    8.30
   2  -7  15    0.90   11.10
  -2  -7 -15   -0.20    8.80
  -2  -7 -15    9.30   11.10
   2  -7  15    4.10    7.70
  -2  -7 -15    5.40   22.50
   2   7 -15  -29.30   20.90
   2  -8 -15   44.50   11.30
  -2  -8  15   30.60   15.10
  -2  -8  15   33.80    9.00
  -2   8 -15   17.90   33.80
   2  -8 -15   21.00   19.10
   2   8 -15   11.70   26.80
  -2  -8 -15   35.50   12.50
   2  -8  15   30.30   14.70
  -2  -8 -15   45.40   16.50
   2  -8  15   37.90   10.70
  -2  -8 -15   -3.30   29.10
   2  -9 -15    2.10    9.80
  -2  -9  15   15.60   18.70
  -2   9 -15  -82.69   35.40
  -2  -9  15   -2.70    8.60
   2  -9 -15    1.80   18.00
   2   9 -15   -0.30   30.00
   2  -9  15  -11.30   13.70
  -2  -9 -15  -52.49   24.70
  -2  -9 -15  -12.40   11.70
   2  -9  15   -0.30    9.80
   3   0 -15    2.00    5.60
   3   0 -15    3.80    6.10
   3   0 -15    1.40    6.10
   3   0 -15   16.70    3.30
  -3   0 -15   -1.90    5.50
  -3   0 -15   -2.00    7.30
  -3   0  15    2.00   10.20
  -3   1 -15  386.76   35.10
   3  -1 -15  429.36   36.20
   3  -1 -15  402.46   35.70
  -3   1 -15  417.06   36.30
   3  -1 -15  398.96   32.70
   3   1 -15  420.66   32.50
   3   1 -15  454.55   34.60
  -3  -1 -15  351.66   33.10
   3   1 -15  426.16   38.00
  -3   1  15  407.96   34.30
  -3   1  15  353.66   39.50
  -3  -1 -15  444.16   35.40
   3   1 -15  364.76   34.70
  -3  -1 -15  421.76   35.70
   3  -2 -15   36.50   10.50
   3  -2 -15   31.80    4.90
  -3  -2  15   28.00    5.70
  -3  -2  15   14.50   10.50
  -3   2 -15   25.00   10.70
  -3   2 -15   23.30    7.00
   3  -2 -15   27.30    7.90
   3  -2  15   32.60    5.80
   3  -2  15   31.00    7.00
  -3  -2 -15   26.80    5.30
  -3  -2 -15   29.40    7.20
   3   2 -15   28.90    6.10
   3   2 -15   27.50   12.30
  -3   2  15   29.00    5.00
  -3  -2 -15   20.70    6.90
  -3   2  15   -6.70   11.00
   3   2 -15   25.10    7.00
   3   2 -15   26.20    3.30
   3  -3 -15   14.70    7.10
  -3  -3  15   22.40    3.90
   3  -3 -15   14.10    4.60
  -3   3 -15  -11.00   10.00
  -3  -3  15   17.90    4.40
  -3   3 -15   15.70    6.80
   3  -3 -15   20.20    9.80
  -3  -3  15   12.60   10.30
  -3  -3 -15    9.60    7.70
  -3  -3 -15   12.60    6.70
   3   3 -15    3.30   12.80
  -3  -3 -15   22.50   13.20
   3  -3  15   17.80    6.80
  -3   3  15   11.70   10.70
   3   3 -15   17.00    3.10
   3   3 -15   18.00    6.40
   3  -3  15   24.60    6.20
  -3  -4  15   16.10    4.20
  -3   4 -15   17.70    7.30
   3  -4 -15   25.70    8.80
  -3   4 -15    7.10   13.60
   3  -4 -15   20.20    5.70
   3  -4 -15   20.20   11.10
  -3  -4  15   10.60   11.40
   3  -4  15   21.10    7.10
  -3  -4 -15   21.20    7.50
   3   4 -15   10.00   16.60
   3  -4  15   25.80    7.50
  -3   4  15   25.20   11.40
  -3  -4 -15   16.70    8.80
  -3  -4 -15   10.10   14.30
   3  -5 -15  444.46   37.20
  -3  -5  15  444.06   41.80
  -3  -5  15  452.65   36.20
   3  -5 -15  460.75   39.40
  -3   5 -15  560.64   47.50
   3  -5 -15  458.35   42.60
  -3  -5 -15  512.55   51.29
  -3  -5 -15  426.26   37.70
  -3  -5 -15  418.46   40.20
   3   5 -15  362.76   47.50
   3  -5  15  426.66   37.50
   3  -5  15  439.26   38.90
  -3   6 -15   76.49   28.60
   3  -6 -15   45.80    9.10
  -3  -6  15   35.20    6.60
   3  -6 -15   38.90   10.00
   3  -6 -15   51.39   17.00
  -3  -6  15   35.90   14.90
  -3   6 -15   43.50   23.30
  -3  -6 -15   54.39   25.70
  -3  -6 -15   25.30    8.40
   3   6 -15   17.60   21.30
  -3  -6 -15   35.10   12.80
   3  -6  15   31.00    9.10
   3  -6  15   21.90    9.60
   3  -7 -15   58.99   11.50
  -3  -7  15   73.79   17.40
  -3  -7  15   64.79    9.50
  -3   7 -15   23.90   24.60
  -3   7 -15  130.19   38.80
   3  -7 -15   78.59   12.10
   3  -7 -15   59.39   18.20
   3  -7  15   75.99   12.60
   3  -7  15   76.29   15.40
   3   7 -15   60.99   28.20
  -3  -7 -15   51.29   14.30
  -3  -7 -15  139.09   36.70
  -3  -7 -15   53.99   12.40
   3  -8 -15    1.20    9.20
  -3  -8  15    3.20    7.40
   3  -8 -15   -4.70   14.70
  -3   8 -15   46.70   40.90
  -3  -8  15   -6.50   14.60
  -3  -8 -15  -15.40    9.70
   3   8 -15  -14.60   25.40
  -3  -8 -15    7.80   33.70
   3  -8  15  -15.00   12.70
   3  -8  15    8.00    8.70
  -3  -8 -15   20.90   10.60
  -3   9 -15   56.99   43.30
   3  -9 -15   88.39   14.80
  -3  -9  15   60.69   21.10
   3  -9 -15   66.39   21.70
  -3  -9 -15   91.89   17.70
   3  -9  15   76.29   20.80
   3   9 -15   47.40   34.30
   3  -9  15   90.09   15.30
  -3  -9 -15   64.89   41.40
  -4   0 -15   -2.20    4.30
   4   0 -15   -0.50    1.50
   4   0 -15    3.00    4.70
  -4   0 -15    7.30    7.40
   4   0 -15    2.50    8.60
  -4   0  15    7.30   12.10
   4   0 -15   -1.00    6.70
   4   0 -15    1.10    2.90
  -4   1 -15  137.49   16.80
   4  -1 -15  117.89   11.00
   4  -1 -15  125.49   14.00
  -4  -1  15  116.79   21.80
  -4   1 -15  127.89   14.50
   4  -1 -15  120.89   15.00
   4   1 -15  145.59   14.50
   4   1 -15  143.59   15.00
   4   1 -15  135.39   18.70
  -4   1  15  117.89   22.40
  -4  -1 -15  139.79   15.60
  -4  -1 -15  117.79   13.90
  -4   2 -15    3.70    6.50
   4  -2 -15    4.90    5.00
  -4   2 -15    0.00    9.10
   4  -2 -15    2.50    3.30
  -4  -2  15  -13.70    8.90
   4  -2 -15    2.90    7.80
   4   2 -15    5.40    5.80
  -4   2  15   -0.90    4.40
  -4   2  15  -25.70   10.40
   4   2 -15   12.50   11.60
   4  -2  15   -5.60    6.10
  -4  -2 -15    3.80    6.80
  -4  -2 -15   13.30    2.50
  -4  -2 -15    3.70    2.70
  -4  -2 -15    7.40    7.40
   4  -2  15    5.00    3.70
   4  -3 -15   29.70    5.40
  -4   3 -15   19.70   12.00
  -4   3 -15   24.70    7.40
   4  -3 -15   34.10   10.80
   4  -3 -15   31.90    8.50
  -4  -3  15   12.60   12.30
  -4  -3  15   24.60    5.50
  -4  -3 -15   27.60    6.30
   4  -3  15   23.30    5.90
  -4  -3 -15   29.20    9.40
   4   3 -15   27.00   14.10
   4  -3  15   28.10    7.70
  -4   3  15   20.90   13.80
  -4  -3 -15   37.50    9.20
  -4  -4  15    7.70   11.80
  -4  -4  15    7.90    3.20
  -4   4 -15   -3.20   10.70
  -4   4 -15   10.70    6.80
   4  -4 -15   11.90   10.00
   4  -4 -15    8.20    6.90
   4  -4 -15    6.70    5.00
   4  -4  15   10.20    7.30
   4   4 -15   22.40   17.00
   4  -4  15    3.70    6.20
  -4  -4 -15   13.40    8.00
  -4   4  15    8.70   11.90
  -4  -4 -15    2.60    8.20
  -4  -4 -15   34.90   18.70
  -4   4  15    4.00    4.30
   4  -5 -15   42.60    7.90
  -4   5 -15   15.00   15.20
  -4  -5  15   39.60   15.70
   4  -5 -15   39.50    9.10
  -4  -5  15   42.20    5.60
  -4   5 -15   28.40    8.50
   4  -5 -15   32.60   13.40
  -4  -5 -15   24.80   19.60
   4   5 -15   32.60   20.20
   4  -5  15   42.10    9.20
  -4  -5 -15   32.30    9.90
  -4  -5 -15   33.60   11.10
  -4   6 -15    1.10   19.60
   4  -6 -15   36.10   15.70
   4  -6 -15   20.90    8.60
   4  -6 -15   27.20    8.00
  -4  -6  15   13.80   13.70
  -4  -6 -15   39.00   12.90
   4  -6  15   26.10    9.90
   4   6 -15   24.50   23.70
  -4  -6 -15   21.90    9.50
  -4  -6 -15   30.60   22.90
  -4   7 -15   53.79   33.20
   4  -7 -15    7.50    7.90
   4  -7 -15   -2.10   14.30
   4  -7 -15    4.00    7.50
  -4   7 -15  -25.00   22.40
  -4  -7  15   -5.00   13.80
  -4  -7 -15    6.10   10.50
  -4  -7 -15    3.10   10.70
   4  -7  15    5.10    9.50
  -4  -7 -15   -1.20   10.50
  -4  -7 -15   24.70   30.10
   4   7 -15    3.50   22.80
  -4   8 -15  -66.49   23.50
   4  -8 -15   12.70   10.00
   4  -8 -15    8.00   15.40
  -4   8 -15   39.70   37.10
  -4  -8  15    5.90   16.60
  -4  -8 -15   23.30   32.60
  -4  -8 -15   24.80   15.00
   4   8 -15   30.40   32.10
  -4  -8 -15   -2.10   11.80
   4  -8  15    8.00   10.30
   4  -9 -15   22.30   10.90
  -4  -9  15    5.50   18.50
   4  -9 -15    4.20   19.40
  -4   9 -15   23.10   41.90
  -4  -9 -15   18.80   14.30
   4  -9  15  -10.50    9.80
  -4  -9 -15    8.30   36.90
   4   9 -15   20.40   35.30
  -5   0  15    2.80   14.40
  -5   0 -15   -3.20    6.50
  -5   0 -15    5.90    9.10
   5   0 -15    0.10    7.10
  -5   1 -15  135.69   18.20
  -5  -1  15  153.08   25.30
   5  -1 -15  109.69   10.60
   5  -1 -15  139.99   15.90
  -5   1 -15  109.59   14.50
  -5  -1 -15  134.79   15.80
   5   1 -15  144.39   15.50
  -5  -1 -15  124.49   15.40
   5   1 -15  142.59   21.20
  -5   1  15   85.69   22.00
   5  -2 -15    8.70    3.60
  -5   2 -15    4.20    6.50
  -5   2 -15   12.60   11.40
  -5  -2  15  -16.10   11.20
   5  -2 -15    4.40    8.70
   5  -2 -15   12.90    7.50
  -5   2  15  -25.20   14.50
   5  -2  15    0.40    7.60
   5   2 -15   11.60    8.00
   5   2 -15   17.60   12.40
   5  -2  15   12.50    3.30
  -5  -2 -15   11.50    8.10
  -5  -2 -15    6.90    9.00
  -5   3 -15  516.35   45.90
  -5   3 -15  484.15   41.80
   5  -3 -15  471.05   39.60
   5  -3 -15  516.65   44.10
   5  -3 -15  486.35   42.50
   5   3 -15  471.05   48.20
  -5  -3 -15  440.16   42.20
  -5   3  15  497.55   41.00
  -5  -3 -15  491.65   42.40
   5  -3  15  491.55   41.70
  -5   3  15  483.75   48.20
   5  -3  15  493.25   40.20
  -5   4 -15   -0.80    6.60
  -5  -4  15   -9.90   12.50
   5  -4 -15    8.40    7.60
  -5   4 -15    2.90   13.40
   5  -4 -15    1.30   10.30
   5  -4 -15    1.10    5.00
  -5  -4 -15    3.70    6.10
  -5  -4 -15   -1.40    8.70
   5   4 -15    9.50   16.20
  -5   4  15    7.30   13.20
   5  -4  15   -1.70    7.30
  -5  -4 -15    5.60    9.30
   5  -5 -15   26.90   12.90
  -5   5 -15   20.30    8.00
   5  -5 -15   31.80    7.30
  -5   5 -15   -8.80   13.40
  -5  -5  15    8.90   14.10
  -5  -5 -15   44.30   24.30
  -5  -5 -15   13.90   10.10
  -5  -5 -15   27.10    9.20
   5   5 -15   30.90   20.30
  -5   5  15   31.70   15.00
  -5  -5 -15   29.40   10.90
   5  -5  15   17.00    8.60
   5  -6 -15   12.10    7.50
  -5   6 -15   11.50   18.70
  -5  -6  15    0.60   14.20
   5  -6 -15    1.20   12.60
   5  -6  15    5.40    9.40
   5   6 -15   25.60   25.00
  -5  -6 -15    3.00   10.20
  -5  -6 -15   20.00   22.40
  -5  -6 -15   -0.60   10.30
   5  -7 -15  222.28   29.40
   5  -7 -15  199.58   20.80
  -5  -7  15  187.08   30.30
  -5   7 -15  232.08   38.10
  -5  -7 -15  208.58   23.70
   5   7 -15  228.98   42.40
   5  -7  15  189.98   22.40
  -5  -7 -15  173.08   23.30
  -5  -7 -15  309.27   50.29
  -5  -7 -15  209.48   25.20
  -5   8 -15  111.99   46.30
   5  -8 -15   12.50   10.70
  -5  -8  15    9.50   20.90
  -5   8 -15  -13.70   27.20
   5  -8 -15   18.80   18.40
   5   8 -15   21.90   32.90
  -5  -8 -15   33.60   33.10
   5  -8  15    3.40   11.20
  -5  -8 -15   24.50   15.80
  -5  -8 -15   18.00   13.30
  -6   0  15   -3.60   18.10
  -6   0 -15    8.60    8.10
  -6   0 -15   17.70   10.00
   6   0 -15   18.50   10.50
  -6   1 -15   44.90   10.50
   6  -1 -15   65.39   13.80
  -6   1 -15   71.59   15.10
  -6  -1  15   54.29   20.40
  -6   1  15  -11.90   18.50
  -6  -1 -15   49.20   11.30
   6   1 -15   64.19   12.70
  -6  -1 -15   44.00   12.10
  -6   2 -15    8.80   12.50
   6  -2 -15   -3.00    3.90
   6  -2 -15   12.40   10.40
  -6   2 -15   10.00    7.50
  -6  -2  15   -1.80   14.30
  -6   2  15  -25.20   16.90
   6  -2  15  -10.30    9.40
  -6  -2 -15    8.30   10.60
  -6  -2 -15    4.70    8.60
   6   2 -15    4.50   14.90
  -6   3 -15   64.59   16.10
  -6   3 -15   61.49   11.00
   6  -3 -15   65.79   15.00
   6  -3 -15   72.79    8.50
  -6  -3  15   18.10   17.40
  -6  -3 -15   72.69   14.30
  -6   3  15  103.49   13.00
  -6  -3 -15   56.49   12.80
   6   3 -15   76.99   22.00
   6  -3  15   68.59   13.20
  -6   3  15   49.00   19.50
  -6   4 -15    8.40   15.60
  -6  -4  15   -2.50   14.30
   6  -4 -15    4.30    5.50
  -6   4 -15    5.90    7.00
   6  -4 -15   21.70   12.80
  -6   4  15   22.90   17.50
   6  -4  15   13.00    9.50
  -6  -4 -15   13.20   11.50
   6   4 -15    8.70   17.60
  -6  -4 -15   -0.60    9.40
   6  -5 -15    9.00    6.80
  -6  -5  15   -5.40   15.50
  -6   5 -15    0.90   15.40
   6  -5 -15   18.10   13.50
  -6   5 -15    5.70    8.40
  -6  -5 -15    0.40   10.30
  -6   5  15   20.60   17.50
   6  -5  15    9.90   10.00
   6   5 -15    5.10   19.00
  -6  -5 -15    2.80   11.80
   6  -6 -15   15.10    8.00
  -6   6 -15    2.90   15.40
   6  -6 -15   23.20   16.10
  -6  -6  15    6.80   19.20
   6   6 -15   17.90   23.60
  -6  -6 -15   36.10   26.90
   6  -6  15    4.50    9.40
  -6  -6 -15   16.30   13.40
  -6  -6 -15   34.30   13.50
   6  -7 -15   12.00    9.60
  -6   7 -15   22.00   24.30
  -6  -7  15   19.00   19.20
   6  -7 -15   11.40   17.70
  -6  -7 -15   19.80   25.00
   6   7 -15   20.00   30.10
  -6  -7 -15   13.30   13.30
   6  -7  15   19.60   12.40
  -6  -7 -15    7.60   12.30
  -6  -7 -15    8.50   11.40
  -6  -8  15   22.00   21.20
  -6   8 -15    8.80   30.60
   6  -8 -15    5.30   17.00
   6  -8 -15    1.20   10.10
  -6  -8 -15   39.40   36.80
   6   8 -15   23.10   30.60
  -6  -8 -15    4.00   13.20
   6  -8  15    8.90   11.20
   7   0 -15   10.90   11.20
  -7   0  15  -21.90   18.40
  -7   0 -15    9.80   11.60
  -7   0 -15    6.30    9.30
   7  -1 -15  219.78   25.30
  -7   1 -15  223.98   24.60
  -7  -1  15  274.67   37.70
  -7   1 -15  230.68   25.80
  -7  -1 -15  238.78   25.50
   7   1 -15  227.48   25.70
  -7  -1 -15  239.58   25.40
  -7   2 -15   20.10   15.20
   7  -2 -15   10.60   11.80
  -7  -2  15    3.50   18.70
  -7   2 -15    1.10    8.90
  -7  -2 -15   -0.40   11.00
  -7   2  15  -23.40   16.30
  -7  -2 -15   13.30   10.60
  -7   2  15    9.40   10.80
  -7   3 -15  114.69   21.90
  -7  -3  15   54.89   22.40
   7  -3 -15  116.89   19.10
  -7   3 -15   91.89   14.30
  -7  -3 -15   88.89   16.30
  -7   3  15   61.29   22.10
  -7   3  15  109.79   16.30
   7  -3  15   91.99   16.70
  -7  -3 -15  118.89   19.00
  -7   4 -15   43.40   18.50
  -7  -4  15   -0.20   15.60
   7  -4 -15   55.99   17.60
  -7   4 -15   38.10   10.40
  -7   4  15   49.90   20.50
   7   4 -15   61.59   23.40
  -7  -4 -15   47.40   13.60
   7  -4  15   59.19   13.40
  -7  -4 -15   62.29   16.20
  -7  -5  15  137.99   33.90
  -7   5 -15  289.97   31.10
   7  -5 -15  223.28   28.80
  -7   5 -15  176.58   31.00
  -7   5  15  253.87   36.00
   7  -5  15  235.98   24.90
  -7  -5 -15  220.78   26.60
  -7  -5 -15  253.37   27.60
   7   5 -15  279.97   43.50
  -7  -6  15   -4.70   18.60
   7  -6 -15    1.50   15.30
  -7   6 -15   14.60   13.80
  -7  -6 -15   10.70   14.60
   7   6 -15    5.50   27.90
  -7  -6 -15   -0.60   12.10
   7  -6  15    2.10   11.90
  -7  -6 -15   16.40   25.00
  -7  -7  15   63.89   27.80
  -7   7 -15   48.50   24.40
   7  -7 -15   43.80   19.60
   7  -7  15   42.90   13.40
   7   7 -15   48.40   35.10
  -7  -7 -15   82.29   29.00
  -7  -7 -15   52.39   17.30
  -7  -7 -15   29.50   16.90
  -8   0 -15    3.30    8.60
  -8   0 -15    8.10   14.90
   8   0 -15    5.00   11.80
  -8   0  15  -41.60   20.00
  -8   1 -15   18.20   11.40
  -8  -1  15  -18.90   25.10
   8  -1 -15   26.60   13.50
  -8   1 -15   28.30   14.40
  -8   1  15   10.40   13.00
  -8   1  15  -35.90   19.70
  -8  -1 -15   17.70   13.60
  -8  -1 -15   29.40   12.80
   8  -2 -15   14.30   13.40
  -8   2 -15   13.30   10.80
  -8  -2  15   32.70   26.90
  -8   2 -15   31.40   17.00
  -8   2  15   21.70   13.20
  -8   2  15  -28.70   22.00
  -8  -2 -15   14.50   12.00
  -8  -2 -15   36.60   14.10
  -8   3 -15   -8.20   10.60
  -8   3 -15   13.20   17.00
   8  -3 -15   18.30   14.30
  -8  -3  15   -2.10   20.50
  -8  -3 -15    6.10   12.60
   8  -3  15    2.00   12.10
  -8   3  15   13.80   21.80
  -8  -3 -15    8.50   14.80
  -8   4 -15    5.50    9.40
  -8   4 -15   19.90   18.80
   8  -4 -15   10.80   16.50
  -8  -4  15   25.00   22.20
  -8  -4 -15    4.30   12.70
  -8  -4 -15   12.30   13.50
   8  -4  15   18.80   12.70
  -8   4  15   14.00   19.30
  -8   5 -15   23.50   17.80
  -8  -5  15   12.00   19.00
   8  -5 -15   20.10   16.40
  -8   5  15   30.70   20.30
   8  -5  15   28.10   13.70
  -8  -5 -15   12.00   15.90
  -8  -5 -15    1.90   12.70
   8  -6 -15   14.40   17.20
  -8   6 -15   48.60   18.50
  -8  -6  15   13.00   19.90
  -8  -6 -15    4.80   15.70
   8   6 -15   32.00   32.10
  -8  -6 -15   34.10   28.10
   8  -6  15   12.60   13.20
  -9   0 -15    1.30   17.00
  -9   0 -15    4.80   13.30
  -9   0  15   -3.90   14.90
  -9   1 -15  130.29   21.30
   9  -1 -15  148.99   24.70
  -9   1 -15  147.99   23.90
  -9  -1  15   78.09   36.00
  -9  -1  15  142.89   26.20
  -9  -1 -15  163.28   24.00
  -9  -1 -15  145.09   22.50
  -9   1  15  159.78   24.50
  -9  -2  15   13.20   30.60
  -9   2 -15   13.30   16.50
  -9   2 -15   22.10   13.10
   9  -2 -15   24.70   17.60
  -9   2  15  -15.70   22.20
  -9   2  15   21.10   16.10
  -9  -2 -15    6.60   14.10
  -9  -2 -15   42.20   18.50
  -9  -3  15   99.69   35.80
  -9   3 -15   91.49   17.40
  -9   3 -15  112.69   25.90
   9  -3 -15  128.39   24.00
  -9  -3 -15  102.79   22.40
  -9   3  15   82.29   27.70
  -9  -3 -15   91.99   19.40
  -9   4 -15    1.00   12.10
  -9  -4  15   22.10   25.10
  -9   4 -15   25.70   21.50
   9  -4 -15   16.60   16.70
  -9  -4 -15   -2.00   18.00
   9  -4  15   27.80   14.30
  -9  -4 -15    8.50   14.20
  -9   4  15   38.50   25.60
 -10   0 -15   30.80   17.50
 -10   0  15   43.50   18.50
 -10   0  15  -78.79   27.60
 -10   1 -15   29.20   21.10
 -10  -1  15  -55.79   26.50
 -10  -1  15  -19.10   18.40
 -10   1  15   13.50   18.10
 -10   1  15  -61.89   28.50
 -10  -1 -15   -2.60   16.10
  10  -2 -15   19.40   19.10
   0   0 -16 2314.07  174.78
   0   0 -16 2125.49  174.48
   0   0  16 2083.19  174.68
   0   0 -16 2051.19  175.18
   0   0 -16 2235.68  175.38
   0  -1 -16    1.40    7.80
   0   1 -16    1.20    8.20
   0   1 -16    4.00   10.30
   0   1 -16   12.00    9.90
   0   1 -16    3.10    6.30
   0  -1 -16   -1.20    7.70
   0  -1 -16   -1.70    7.80
   0   1  16  -17.00    6.20
   0  -1  16   -8.50    5.00
   0   2  16  111.59   16.20
   0  -2 -16  119.29   18.20
   0   2 -16  136.79   13.60
   0  -2  16   97.79   11.40
   0  -2 -16  103.99   14.00
   0   2 -16  139.99   20.00
   0  -2  16   85.39   13.50
   0   2 -16  147.79   22.20
   0   2 -16  114.79   16.70
   0  -2 -16  105.89   14.90
   0   3  16   -4.80    3.80
   0  -3  16   -0.60    6.20
   0   3 -16   -8.30    4.30
   0  -3  16   -3.40    4.30
   0   3  16    7.00    7.50
   0  -3 -16   -0.80    8.60
   0   3 -16    2.90   15.70
   0   3 -16  -10.90   11.80
   0  -3 -16    2.60    6.60
   0  -3 -16    2.70    9.80
   0   3 -16   -1.50    2.60
   0  -4  16  476.25   39.80
   0   4  16  378.96   36.10
   0  -4 -16  507.35   44.70
   0   4 -16  575.74   53.39
   0  -4  16  417.56   36.70
   0   4 -16  385.36   38.70
   0  -4 -16  467.15   37.90
   0  -4 -16  512.35   42.70
   0  -5  16    5.30    5.20
   0  -5  16   -7.10    8.20
   0   5 -16    9.30    5.70
   0   5 -16  -15.40   20.60
   0  -5 -16   -4.10    5.50
   0  -5 -16  -14.20   12.90
   0  -5 -16    0.80   12.30
   0  -5 -16   -7.50    6.80
   0   6 -16  346.57   54.99
   0  -6 -16  347.07   43.10
   0  -6 -16  451.25   35.60
   0  -6  16  418.36   34.20
   0   6 -16  394.26   33.90
   0  -6  16  421.76   37.70
   0  -7  16   -1.50   10.40
   0  -7 -16   -6.70    8.50
   0  -7 -16  -17.30   13.20
   0  -7  16   -2.00    6.50
   0   7 -16  -29.40   28.60
   0  -7 -16  -39.70   14.60
   0  -8  16   36.10    9.80
   0  -8 -16  -12.40   19.30
   0  -8 -16   -8.20   16.60
   0   8 -16  -46.50   29.70
   0  -8 -16   47.80   12.40
   0  -8  16   46.60   16.00
   0  -9 -16  -50.69   22.40
   0  -9  16   -2.90    9.20
   0  -9 -16    5.20   11.50
   0  -9  16   -3.30   16.10
   1   0 -16   28.10   10.80
   1   0 -16   53.69   10.80
  -1   0 -16   20.30    9.60
  -1   0 -16   82.09   11.40
   1   0 -16   36.50   11.30
  -1   0 -16   16.30    8.20
   1   0 -16   28.00   10.00
  -1   0  16   86.99   14.20
  -1   0 -16   46.80   10.20
   1  -1 -16   -6.70    8.20
  -1   1 -16   -1.60    7.30
   1  -1 -16   -5.60    4.20
   1   1  16  -12.40    5.90
  -1   1 -16    8.20    6.40
  -1   1 -16   -4.60    6.10
  -1  -1  16  -10.00    6.50
   1  -1 -16  -19.40    6.60
   1  -1 -16   -5.80    8.10
  -1   1  16   -5.60    9.50
  -1  -1 -16    2.40    8.60
  -1  -1 -16   -3.80    6.50
   1   1 -16  -19.10    6.20
   1   1 -16  -13.60    4.80
   1  -1  16   -1.50    5.10
  -1  -1 -16   -8.50    5.80
   1   1 -16   -6.00    9.40
  -1   2 -16    1.80    6.80
  -1   2 -16   12.20    6.10
  -1  -2  16   -3.20    4.10
  -1   2 -16    1.00   11.10
   1  -2 -16  -15.60    8.10
   1  -2 -16  -17.30    7.20
   1   2  16    7.90    6.10
  -1  -2  16    0.70    7.10
  -1  -2 -16    0.70    8.50
  -1   2  16  -19.60    8.60
   1   2 -16   -2.00    7.30
   1  -2  16   -2.30    5.50
  -1  -2 -16  -11.70    5.80
  -1  -2 -16   -3.70    6.20
   1  -2  16   -6.80    4.80
   1   2 -16    0.90   12.00
   1   2 -16    3.30    4.20
   1  -3 -16   10.90   11.20
  -1   3 -16   50.89   15.70
  -1   3 -16   31.80    5.80
  -1   3 -16   42.80   10.90
  -1  -3  16   38.70   10.10
   1  -3 -16   23.90   11.60
  -1   3 -16   67.79   18.10
  -1  -3  16   43.50    6.20
  -1   3  16   36.70   11.50
   1   3 -16   41.20    9.00
  -1   3  16   21.40    6.60
   1   3 -16   19.70   15.50
  -1  -3 -16   41.90    8.60
   1  -3  16   26.90    6.10
  -1  -3 -16   27.00    7.20
  -1  -3 -16   48.40   13.50
   1  -3  16   36.40    8.70
  -1   4 -16   36.50   21.30
   1  -4 -16   -3.00    5.20
  -1   4 -16   14.70    4.10
  -1   4 -16   18.40   14.10
   1  -4 -16    1.10   10.40
  -1   4 -16   -6.80    7.70
   1  -4 -16  -14.00   10.70
  -1  -4  16    5.60    4.70
  -1  -4  16    9.90    9.50
   1   4 -16   20.10    6.70
  -1  -4 -16   -1.40    7.00
   1   4 -16    0.00   16.40
  -1  -4 -16   21.30    7.00
  -1   4  16   11.10    3.20
   1  -4  16   13.00    5.20
   1  -4  16   20.50    8.10
  -1  -4 -16   -5.90    7.30
  -1  -4 -16   25.30   13.60
  -1   5 -16   12.10   15.70
   1  -5 -16    1.20   11.00
  -1   5 -16   13.20    8.00
  -1   5 -16   63.29   26.00
   1  -5 -16   40.90    8.30
  -1  -5  16   35.10   10.90
  -1  -5  16   35.30    6.20
   1  -5 -16   -5.80   13.40
  -1  -5 -16   47.20    7.90
   1  -5  16   26.80    7.00
   1   5 -16   -9.10   17.80
   1  -5  16   34.60    9.90
  -1  -5 -16   61.29   18.20
   1   5 -16   33.50    7.10
  -1  -5 -16   23.10   11.00
   1  -6 -16  -23.20   12.40
  -1  -6  16   11.10   10.20
   1  -6 -16    4.40    7.60
  -1  -6  16    6.50    5.80
   1  -6 -16  -19.60    8.80
  -1   6 -16   10.40   24.50
   1  -6  16    4.80    8.80
  -1  -6 -16    4.90   10.90
  -1  -6 -16    0.20    8.60
   1  -6  16   12.60    6.80
   1   6 -16  -32.60   18.70
  -1  -6 -16   -4.70   19.60
  -1   7 -16   25.20   30.00
   1  -7 -16   -6.50   16.30
  -1  -7  16   29.60    7.70
   1  -7 -16   -6.30   11.60
   1  -7 -16   31.00   10.00
  -1  -7  16   12.30   11.90
  -1  -7 -16    7.10   21.10
   1   7 -16  -42.70   22.10
  -1  -7 -16   27.60   10.80
  -1  -7 -16   25.60   14.30
   1  -7  16   34.00   12.60
   1  -7  16   21.90    8.20
   1  -8 -16  -18.70   17.00
  -1  -8  16   -3.70   12.50
  -1   8 -16  -48.20   28.90
   1  -8 -16    3.60    8.70
  -1  -8  16   -0.30    8.00
  -1  -8 -16    2.10   17.70
  -1  -8 -16   -4.50    9.30
   1  -8  16   -1.30    8.70
  -1  -8 -16  -24.30   21.50
   1  -8  16   -1.90   13.10
  -1   9 -16  -68.99   35.50
   1  -9 -16    8.90   20.10
   1  -9 -16   13.20   10.40
  -1  -9  16   33.70   11.00
  -1  -9  16   35.90   18.60
  -1  -9 -16   26.80   11.90
  -1  -9 -16  -24.20   23.10
   1   9 -16  -31.80   30.00
   1  -9  16   25.50   17.30
   1  -9  16   20.40   10.50
  -2   0 -16   91.89   12.80
  -2   0 -16   65.29   10.00
   2   0 -16   83.79   13.00
  -2   0 -16   93.69   14.30
   2   0  16   82.89   11.80
   2   0 -16   73.69   12.10
   2   0 -16   87.59   12.00
  -2   0  16  132.39   16.90
   2  -1 -16   57.69   11.80
   2   1  16   67.89    8.50
  -2   1 -16   43.30   12.60
  -2   1 -16   69.19   11.10
  -2  -1  16   45.30   12.10
   2  -1 -16   71.59    9.10
   2  -1 -16   62.69   12.10
   2   1 -16   75.19    8.30
   2   1 -16   42.60   12.40
  -2  -1 -16   84.69   12.10
  -2  -1 -16   86.39   12.10
   2  -1  16   41.50    8.50
   2   1 -16   69.19   11.00
   2   1 -16   64.99    9.00
  -2   1  16   91.69   17.20
  -2  -1 -16   76.49   13.70
   2  -2 -16  712.63   63.69
  -2  -2  16  694.03   63.99
   2  -2 -16  685.33   63.59
  -2   2 -16  615.94   62.09
   2   2 -16  730.73   59.59
  -2  -2 -16  590.94   64.29
  -2  -2 -16  799.32   61.49
  -2  -2 -16  794.02   63.19
  -2  -2 -16  754.22   61.09
   2  -2  16  851.61   61.19
   2   2 -16  845.32   62.49
   2   2 -16  823.32   60.29
   2  -3 -16   -1.40    9.70
   2  -3 -16    9.20    8.90
  -2   3 -16   17.60   11.30
  -2  -3  16   13.90    9.60
   2  -3 -16   11.30    5.00
  -2   3 -16   -1.20    5.60
  -2  -3  16   10.50    4.20
   2   3 -16   13.40    6.60
   2  -3  16   14.80    6.50
  -2   3  16   20.70   11.00
   2  -3  16   13.80    5.80
  -2   3  16   29.70    5.60
   2   3 -16   -8.70   11.70
  -2  -3 -16    6.10    6.20
  -2  -3 -16   -2.10   10.50
  -2  -3 -16   17.40    7.00
  -2   4 -16  296.97   27.00
   2  -4 -16  237.28   27.30
  -2  -4  16  266.67   27.60
  -2   4 -16  355.96   33.20
   2  -4 -16  211.28   28.70
  -2  -4  16  255.47   22.60
   2  -4 -16  262.27   23.40
  -2  -4 -16  270.47   24.20
   2  -4  16  293.27   24.00
  -2  -4 -16  293.17   32.30
   2   4 -16  276.37   24.70
  -2   4  16  267.07   28.80
  -2  -4 -16  242.38   26.80
   2  -4  16  274.67   25.30
  -2   5 -16    3.10   17.70
  -2  -5  16    2.60    9.70
   2  -5 -16   -8.80   12.00
  -2   5 -16    1.50    8.80
  -2   5 -16   23.50   21.20
   2  -5 -16   -2.40    8.40
   2  -5 -16    6.00    5.40
  -2  -5  16    0.20    4.30
   2   5 -16  -31.20   15.50
   2  -5  16    5.70    6.50
   2  -5  16   -4.00    7.30
  -2  -5 -16    3.90    6.40
  -2  -5 -16   22.70   18.00
  -2  -5 -16    4.30    8.80
   2  -6 -16  132.59   15.00
  -2  -6  16  143.19   13.50
  -2   6 -16  121.89   26.10
  -2   6 -16  183.88   38.10
   2  -6 -16  133.19   17.90
   2  -6 -16  111.79   23.00
  -2  -6  16  127.29   19.70
   2  -6  16  138.09   18.60
   2   6 -16   48.30   30.00
   2  -6  16  138.99   14.90
  -2  -6 -16  201.48   33.10
  -2  -6 -16  130.79   14.90
  -2  -6 -16  134.29   16.80
   2  -7 -16   12.20    8.60
   2  -7 -16   17.00   10.20
  -2  -7  16   14.30    7.10
   2  -7 -16    5.10   15.70
  -2   7 -16   17.00   29.20
  -2  -7  16   15.20   12.70
   2  -7  16   13.80   11.90
  -2  -7 -16   15.20    9.80
   2  -7  16   23.30    8.00
   2   7 -16  -41.50   20.80
  -2  -7 -16   25.80   24.60
  -2  -7 -16    8.90   12.10
  -2   8 -16  268.57   57.69
   2  -8 -16  196.18   32.80
   2  -8 -16  220.38   23.20
  -2  -8  16  226.98   21.50
  -2  -8  16  236.88   31.40
   2  -8  16  225.98   28.90
   2   8 -16  109.79   39.80
  -2  -8 -16  385.96   50.79
   2  -8  16  224.78   22.80
  -2  -8 -16  278.07   32.10
  -2  -8 -16  217.28   24.60
  -2  -9  16   -0.80   16.20
   2  -9 -16   21.30   12.20
  -2   9 -16  -16.60   41.90
  -2  -9  16   10.00    9.60
   2  -9 -16   21.60   20.10
  -2  -9 -16  -28.30   27.10
   2  -9  16    8.80   10.60
   2  -9  16   -3.10   14.20
   2   9 -16  -41.70   27.90
  -2  -9 -16   -3.70   11.30
   3   0 -16   37.80   10.10
   3   0 -16   39.00    8.90
  -3   0  16   49.30   14.20
   3   0  16   39.40    4.80
  -3   0 -16   36.80    9.70
  -3   0 -16   33.00    7.70
   3   0 -16   35.70    8.30
   3   0 -16   65.59    6.00
  -3   1 -16   15.60    9.20
   3  -1 -16   21.00    7.60
  -3  -1  16    3.10    9.80
   3  -1 -16   17.10    7.80
   3  -1 -16   19.10    3.90
  -3   1 -16   13.90    6.90
   3   1 -16   19.50    6.20
   3   1 -16   13.50    3.60
  -3   1  16    9.00   11.70
   3   1 -16   27.10    7.30
   3  -1  16   18.60    5.40
  -3   1  16   16.40    5.80
   3   1 -16    7.20    9.10
  -3  -1 -16   14.90    7.40
  -3  -1 -16   15.80    4.40
  -3  -1 -16   15.70    7.40
  -3   2 -16   96.39   13.10
  -3  -2  16   83.09   10.10
   3  -2 -16  105.59   13.60
  -3   2 -16   61.09   15.10
   3  -2 -16   84.49    8.90
   3  -2 -16  101.59   14.30
   3   2 -16   85.69    7.70
  -3  -2 -16   92.79   13.20
  -3  -2 -16   93.49   12.10
   3   2 -16   79.99   17.80
   3   2 -16   87.09   11.90
   3  -2  16   92.09   10.60
  -3   2  16   87.59    9.00
  -3  -2 -16   69.39    9.70
   3  -2  16   81.39   11.50
   3   2 -16   92.39   10.20
  -3  -3  16   -3.40    9.30
  -3   3 -16  -10.60    8.90
   3  -3 -16    6.90    4.20
  -3  -3  16    1.00    3.80
  -3   3 -16    1.20    6.80
   3  -3 -16   -2.90    9.10
   3  -3 -16    4.80    7.40
  -3  -3  16    7.00    3.60
  -3  -3 -16    3.90    6.60
  -3  -3 -16    3.30   12.50
   3   3 -16    2.00    2.50
   3  -3  16   -3.70    6.10
  -3  -3 -16   -5.90    7.30
  -3   3  16   -5.30   10.50
   3   3 -16   -1.30   12.30
   3   3 -16   10.30    6.80
   3  -3  16    5.30    5.50
   3  -4 -16   26.40    8.80
  -3   4 -16   11.90    7.30
   3  -4 -16   25.10   12.50
  -3  -4  16   19.70   11.40
   3  -4 -16   21.40    6.20
  -3   4 -16    3.90   13.90
  -3  -4  16   24.70    4.70
  -3   4  16   22.60   12.30
   3  -4  16   21.00    7.40
  -3  -4 -16   24.50    9.80
   3   4 -16    4.70   17.70
  -3  -4 -16   19.00    7.50
  -3  -4 -16   19.70   15.20
   3  -4  16   16.60    7.40
   3  -5 -16   28.00    7.20
  -3   5 -16   23.70    8.30
  -3  -5  16   35.70   14.00
   3  -5 -16   20.10   13.40
  -3   5 -16   32.10   18.50
   3  -5 -16   28.60    9.30
  -3  -5  16   30.40    5.40
  -3  -5 -16   44.40    8.50
  -3  -5 -16   23.00   10.30
   3   5 -16    9.70   18.90
   3  -5  16   27.20    7.80
  -3  -5 -16   54.49   20.30
   3  -5  16   31.80    9.40
  -3   6 -16   55.99   27.00
   3  -6 -16   10.70   14.50
  -3  -6  16    5.70   12.10
   3  -6 -16   16.80    7.80
  -3  -6  16    9.90    5.30
  -3   6 -16  -14.10   17.60
   3  -6 -16   13.10    9.20
  -3  -6 -16    6.00    8.10
   3   6 -16  -15.40   20.40
   3  -6  16    0.90    9.00
  -3  -6 -16    7.70   10.30
  -3  -6 -16   22.50   21.60
   3  -6  16   12.20    8.30
   3  -7 -16   12.70   18.10
  -3  -7  16   11.00   14.10
  -3   7 -16   67.09   33.60
  -3   7 -16    2.50   22.40
  -3  -7  16   29.40    7.10
   3  -7 -16   29.10    9.20
   3  -7 -16   21.50    9.40
  -3  -7 -16   14.00   12.40
   3   7 -16  -13.40   23.00
   3  -7  16   21.50    9.60
  -3  -7 -16    2.20   11.30
   3  -7  16   11.80   10.50
  -3  -7 -16   45.90   28.20
   3  -8 -16    1.60    9.20
  -3   8 -16    6.10   33.50
  -3  -8  16   -1.00   16.80
   3  -8 -16   -5.80   17.20
   3  -8  16   14.50   10.00
  -3  -8 -16   14.20   30.30
  -3  -8 -16   18.20   10.20
   3   8 -16  -18.40   27.20
   3  -8  16   -6.30   11.80
  -3  -8 -16    6.90   11.30
  -3   9 -16   41.80   42.30
  -3  -9  16   14.20   20.20
   3  -9 -16   -2.20   20.20
   3  -9 -16   10.90   10.10
   3  -9  16    8.70   16.40
  -3  -9 -16   11.00   13.90
   3   9 -16  -18.80   35.30
   3  -9  16    6.40   10.00
  -3  -9 -16  -10.80   38.30
   4   0 -16  340.97   32.60
  -4   0 -16  411.86   35.80
   4   0 -16  440.36   35.60
  -4   0 -16  451.15   36.70
  -4   0  16  478.25   42.50
   4   0 -16  361.06   32.10
   4   0 -16  411.06   35.90
   4   0 -16  450.05   38.80
  -4  -1  16   93.59   19.40
  -4   1 -16  123.49   14.20
   4  -1 -16  128.39   14.90
   4  -1 -16  105.59   10.00
  -4   1 -16  115.69   15.40
   4  -1 -16  105.49   13.20
  -4  -1 -16  120.89   14.70
  -4  -1 -16  103.89   14.00
   4   1 -16  124.09   18.20
   4   1 -16  112.89   13.60
   4   1 -16  112.09   14.20
  -4   1  16  148.89   23.30
   4  -2 -16  314.57   27.50
  -4   2 -16  265.27   27.90
   4  -2 -16  278.57   25.50
  -4   2 -16  269.47   24.60
   4  -2 -16  258.57   21.80
   4   2 -16  250.27   23.70
   4   2 -16  282.27   24.90
  -4   2  16  249.78   23.10
   4  -2  16  248.38   22.40
  -4  -2 -16  255.37   25.40
   4  -2  16  259.97   24.70
  -4  -2 -16  261.57   24.80
   4   2 -16  225.48   28.90
   4  -3 -16   34.80    9.30
  -4  -3  16   27.40   13.60
  -4   3 -16   17.40   12.20
  -4   3 -16   32.80    9.10
   4  -3 -16   41.20    6.30
   4  -3 -16   32.20   11.70
   4  -3  16   40.20    7.30
  -4   3  16   25.70   15.20
  -4  -3 -16   31.70   10.10
   4  -3  16   44.70    9.30
  -4  -3 -16   48.10   10.10
   4   3 -16   38.80   15.80
  -4   4 -16  327.67   28.80
   4  -4 -16  311.67   26.30
  -4  -4  16  308.67   34.80
  -4  -4  16  308.87   25.00
   4  -4 -16  298.37   28.90
   4  -4 -16  339.87   32.10
  -4   4  16  279.87   33.60
  -4  -4 -16  306.47   36.50
  -4  -4 -16  304.47   28.20
   4  -4  16  288.07   27.20
  -4  -4 -16  319.17   30.00
   4   4 -16  248.98   36.30
   4  -4  16  308.97   27.50
  -4   5 -16    6.20    6.70
   4  -5 -16   10.00   12.00
  -4   5 -16   -1.30   14.00
  -4  -5  16    4.00   12.40
   4  -5 -16    2.10    6.20
   4  -5 -16    7.80    7.80
  -4  -5 -16    9.30   10.00
   4  -5  16    7.10    8.20
  -4   5  16   18.40   13.70
   4  -5  16   -1.60    7.90
  -4  -5 -16   -0.40   17.60
   4   5 -16   -0.70   18.00
  -4  -5 -16    5.70    8.50
   4  -6 -16  142.99   18.60
   4  -6 -16  139.69   16.10
   4  -6 -16  171.58   23.70
  -4  -6  16  152.08   25.40
  -4   6 -16  227.88   33.90
   4  -6  16  166.98   18.90
  -4  -6 -16  168.58   18.00
  -4  -6 -16  158.48   20.80
  -4  -6 -16  159.78   34.40
   4   6 -16  104.89   31.00
   4  -6  16  140.19   19.80
   4  -7 -16   27.00    9.00
  -4  -7  16   39.10   17.30
  -4   7 -16  104.39   39.10
  -4   7 -16   30.60   26.20
   4  -7 -16   29.00   17.00
   4  -7 -16   19.70    9.70
  -4  -7 -16   41.90   28.60
   4  -7  16   27.70    9.90
   4  -7  16   27.30   12.90
  -4  -7 -16   25.10   13.00
   4   7 -16   16.10   29.40
  -4  -7 -16   22.60   11.20
  -4   8 -16   29.40   30.60
   4  -8 -16   61.29   21.30
  -4   8 -16  136.79   49.80
  -4  -8  16   90.89   24.40
   4  -8 -16  118.79   15.60
  -4  -8 -16   92.09   16.30
   4  -8  16   98.89   15.70
   4   8 -16   81.79   35.40
  -4  -8 -16  157.08   42.10
   4  -8  16   67.59   18.10
  -4  -8 -16   75.89   17.70
   4  -9 -16   16.80   19.40
  -4  -9  16   16.90   23.10
  -4   9 -16   85.09   46.60
   4  -9 -16   22.20   11.90
   4  -9  16    1.60   14.80
  -4  -9 -16    7.60   13.70
   4   9 -16   -3.80   33.20
  -4  -9 -16   29.40   38.30
   4  -9  16   20.00   12.60
  -5   0 -16  122.89   16.90
  -5   0  16  109.69   22.50
  -5   0 -16   87.39   13.50
   5   0 -16   95.79   13.80
   5  -1 -16   16.10    9.20
   5  -1 -16    3.70    2.70
  -5  -1  16   -2.30   13.20
   5  -1 -16    8.30    6.00
  -5   1 -16    5.20    7.10
  -5   1 -16   -2.40    9.40
   5   1 -16   14.60   12.70
  -5  -1 -16   12.00    9.70
   5   1 -16   17.50    8.60
  -5  -1 -16    9.60    7.60
  -5   1  16    3.50   14.60
   5  -2 -16   51.99    6.50
  -5   2 -16   55.69   15.00
   5  -2 -16   60.19   13.00
  -5  -2  16   25.10   15.60
  -5   2 -16   50.69    9.80
   5  -2 -16   59.59   10.30
   5   2 -16   71.79   11.50
   5   2 -16   64.59   18.20
  -5  -2 -16   56.79   12.40
  -5  -2 -16   57.99   11.60
   5  -2  16   38.60   11.60
   5  -3 -16   20.20    5.20
   5  -3 -16   34.60   11.80
  -5   3 -16   25.00    8.50
  -5  -3  16    2.80   12.40
  -5   3 -16   22.40   14.50
   5  -3 -16   28.90    9.00
   5   3 -16   19.90   16.80
  -5   3  16   10.10   16.40
  -5  -3 -16   32.10    9.90
   5  -3  16   25.30    8.40
  -5  -3 -16   47.00   10.70
   5  -3  16   16.80    5.80
   5  -4 -16   55.29    7.90
   5  -4 -16   48.90   10.80
  -5   4 -16   47.30   10.30
   5  -4 -16   60.99   15.80
  -5  -4  16   30.30   16.20
  -5   4 -16   38.00   17.30
  -5   4  16   67.39   19.70
   5   4 -16   50.39   22.10
   5  -4  16   42.10   10.20
   5  -4  16   41.80    8.70
  -5  -4 -16   54.89   12.30
  -5  -4 -16   36.90   11.90
   5  -5 -16   10.80   12.30
  -5  -5  16    5.70   16.30
   5  -5 -16    3.50    6.30
   5  -5 -16   11.50    8.10
  -5   5 -16  -11.90   13.40
  -5   5 -16    8.70    7.60
   5   5 -16   14.60   22.60
   5  -5  16   -0.20    9.10
  -5  -5 -16   13.40   10.50
  -5   5  16   15.60   14.50
  -5  -5 -16   19.70   22.00
   5  -5  16    1.00    7.90
  -5  -5 -16    4.40    9.70
  -5   6 -16   -7.50   18.30
   5  -6 -16   10.20   13.40
  -5  -6  16   17.20   16.00
   5  -6 -16   16.90    7.90
  -5  -6 -16   15.50   22.40
  -5  -6 -16   13.60   11.30
  -5  -6 -16    6.20   11.20
   5   6 -16   10.10   23.40
   5  -6  16   23.00   10.70
   5  -7 -16   26.40    9.50
  -5   7 -16   37.20   26.20
   5  -7 -16   25.60   16.50
  -5  -7  16   21.30   19.90
  -5  -7 -16   41.00   13.30
   5   7 -16   28.30   27.40
  -5  -7 -16   50.29   15.90
  -5  -7 -16   21.30   12.90
  -5  -7 -16   63.99   30.80
   5  -7  16   29.60   10.80
   5  -8 -16   26.10   18.10
  -5  -8  16   -0.80   18.10
   5  -8 -16   11.80   10.60
  -5   8 -16   88.29   40.80
  -5   8 -16  -23.70   27.20
   5  -8  16   -3.10   12.00
  -5  -8 -16   -0.20   13.20
  -5  -8 -16   20.90   13.80
   5   8 -16    2.20   29.80
  -5  -8 -16   29.00   36.80
  -6   0  16  486.65   47.30
  -6   0 -16  384.66   37.30
   6   0 -16  412.46   38.50
  -6   0 -16  417.76   38.10
  -6  -1  16   88.49   23.20
  -6   1 -16   79.49   16.20
   6  -1 -16   76.19   15.20
  -6   1 -16   69.69   12.10
  -6  -1 -16   63.69   12.70
   6   1 -16   83.49   14.30
  -6  -1 -16   65.49   14.20
  -6   1  16   26.50   21.30
  -6  -2  16  132.59   27.60
  -6   2 -16  131.69   16.90
  -6   2 -16  157.28   21.60
   6  -2 -16  169.88   21.30
  -6  -2 -16  137.09   18.10
  -6  -2 -16  138.99   18.40
   6   2 -16  156.68   27.60
   6  -3 -16   17.40    5.50
  -6   3 -16    7.90    7.90
  -6   3 -16   16.00   15.20
  -6  -3  16  -13.40   14.50
   6  -3 -16   25.50   14.20
   6  -3  16   12.30   10.30
  -6  -3 -16   22.20   11.60
   6   3 -16   22.90   19.10
  -6  -3 -16   15.90    8.40
  -6   3  16    2.80   16.90
  -6   3  16   18.80    8.80
   6  -4 -16  184.48   23.40
   6  -4 -16  142.19   13.70
  -6   4 -16  110.89   22.80
  -6   4 -16  147.89   17.70
  -6  -4  16   86.59   23.40
  -6   4  16  125.09   25.30
  -6  -4 -16  134.09   19.10
   6  -4  16  182.18   19.00
   6   4 -16  136.29   29.00
  -6  -4 -16  111.09   16.60
   6  -5 -16    3.50   13.10
  -6   5 -16    0.70    8.30
   6  -5 -16   12.30    6.80
  -6   5 -16    3.40   16.10
  -6  -5  16  -11.30   15.70
  -6  -5 -16   -2.50   10.80
   6  -5  16    1.20   10.20
  -6  -5 -16   29.80   22.80
  -6   5  16   10.90   15.80
  -6  -5 -16   -8.40   11.60
   6   5 -16   -1.00   21.90
   6  -6 -16  165.88   26.40
  -6  -6  16  185.08   32.70
  -6   6 -16  142.69   30.00
   6  -6 -16  164.18   18.00
   6   6 -16  163.78   37.30
  -6  -6 -16  201.78   40.30
  -6  -6 -16  219.98   24.60
   6  -6  16  218.48   23.00
  -6  -6 -16  144.59   22.60
   6  -7 -16   25.50   10.30
   6  -7 -16    8.30   16.50
  -6  -7  16   21.90   20.30
  -6   7 -16    7.40   22.70
  -6  -7 -16   37.70   29.60
   6   7 -16   24.60   28.50
   6  -7  16   11.10   10.90
  -6  -7 -16    9.30   13.80
  -6  -7 -16   16.60   13.60
  -7   0 -16   58.09   16.10
  -7   0  16   35.70   24.40
   7   0 -16   55.49   13.60
  -7   0 -16   46.50   12.40
   7  -1 -16   17.00   11.50
  -7   1 -16   13.20    9.60
  -7   1 -16   33.30   15.00
  -7  -1  16    8.90   22.80
  -7  -1 -16   23.30   12.20
  -7  -1 -16   12.90   10.60
  -7   1  16  -22.30   20.10
   7   1 -16    9.50   11.50
  -7   2 -16   32.80   10.50
   7  -2 -16   34.80   13.90
  -7   2 -16   41.80   15.10
  -7  -2  16   37.40   21.50
  -7  -2 -16   26.60   11.80
  -7   2  16   38.40   12.70
  -7   2  16  -27.10   20.20
  -7  -2 -16   37.50   13.10
  -7   3 -16    0.50    9.30
  -7  -3  16   -8.60   18.70
   7  -3 -16   13.70   13.20
  -7   3 -16    6.60   13.70
  -7  -3 -16    2.70   10.70
  -7  -3 -16   21.20   13.60
   7   3 -16    6.10   17.80
   7  -3  16   -5.50   11.20
  -7   3  16    7.20   11.30
  -7   3  16   -5.00   17.80
  -7   4 -16   18.40   10.20
   7  -4 -16   20.90   14.90
  -7  -4  16   -1.80   17.80
  -7   4 -16   29.60   18.30
  -7  -4 -16   19.20   14.30
   7   4 -16   28.10   24.00
  -7  -4 -16   18.70   12.10
  -7   4  16   10.00   21.10
   7  -4  16   11.40   10.50
  -7   5 -16   19.60   16.50
  -7  -5  16    1.70   19.70
   7  -5 -16   20.60   17.30
   7   5 -16   24.00   24.00
  -7  -5 -16   46.10   15.40
  -7  -5 -16   14.90   12.30
   7  -5  16   14.20   10.60
  -7   5  16   18.90   18.90
  -7   6 -16   30.60   16.20
  -7  -6  16   17.90   20.20
   7  -6 -16   11.30   16.50
  -7  -6 -16   39.00   26.50
  -7  -6 -16   14.00   15.00
   7  -6  16   15.30   11.50
   7   6 -16   -0.10   25.80
  -7  -6 -16   12.80   13.10
  -7   7 -16   38.00   24.10
   7  -7 -16   11.70   20.10
  -7  -7  16    3.10   25.40
  -7  -7 -16   -0.50   14.90
   7   7 -16    2.00   29.50
  -7  -7 -16   72.79   29.10
   7  -7  16   17.40   13.80
  -8   0  16   10.00   24.70
  -8   0 -16   44.90   13.70
   8   0 -16   54.89   16.90
  -8   0 -16   45.00   15.50
  -8   1 -16   -1.20   10.70
   8  -1 -16   18.30   14.70
  -8  -1  16  -16.50   23.00
  -8   1 -16    2.20   13.60
  -8  -1 -16   15.20   15.30
  -8   1  16    0.00   13.20
  -8   1  16  -48.80   19.00
  -8  -1 -16    8.30   11.90
  -8   2 -16  205.78   24.70
  -8  -2  16  282.07   41.50
   8  -2 -16  241.28   27.10
  -8   2 -16  232.28   27.70
  -8   2  16  105.89   35.90
  -8  -2 -16  220.78   26.10
  -8   2  16  227.98   26.70
  -8  -2 -16  214.68   26.30
  -8  -3  16   -5.40   20.60
  -8   3 -16   15.90   18.20
  -8   3 -16    2.80    9.50
   8  -3 -16    9.30   14.50
  -8  -3 -16    1.00   15.30
  -8  -3 -16   -9.90   11.70
  -8   3  16  -13.50   19.50
  -8  -4  16   44.20   23.20
  -8   4 -16   78.99   15.90
   8  -4 -16  116.49   21.70
  -8   4 -16  116.09   26.10
  -8  -4 -16   90.69   18.70
  -8   4  16  111.39   29.40
  -8  -4 -16   93.39   18.40
   8  -4  16   93.09   18.00
  -8  -5  16   16.90   18.30
  -8   5 -16   21.70   19.00
   8  -5 -16   11.50   16.70
   8  -5  16    9.00   13.70
  -8  -5 -16    8.90   13.80
  -8   5  16   22.80   23.40
  -8  -5 -16    3.30   16.10
   8   5 -16    8.20   24.90
   8  -6 -16   17.60   18.20
  -8  -6 -16   50.69   30.30
  -9   0 -16   12.80   14.00
  -9   0  16  -69.19   26.20
  -9   0  16   -6.70   15.00
  -9   0 -16    5.10   15.50
   9  -1 -16   15.10   16.80
  -9   1 -16   26.60   13.70
  -9   1 -16   33.90   19.70
  -9  -1  16  -20.30   29.30
  -9  -1 -16   38.00   16.10
  -9   1  16   12.10   16.10
  -9  -1 -16   14.10   14.10
   9  -2 -16   22.10   16.10
  -9   2 -16   22.40   13.20
  -9  -2  16   14.50   28.10
  -9   2 -16   23.60   20.40
  -9  -2 -16   15.00   14.70
  -9   2  16   35.40   19.00
  -9  -2 -16   20.90   18.10
  -9   2  16  -40.00   25.50
  -9   3 -16   -9.80   11.00
  -9   3 -16   25.00   17.50
   9  -3 -16   20.10   16.30
  -9  -3  16   -9.70   24.80
  -9  -3 -16    9.60   14.20
  -9  -3 -16    6.70   17.50
  -9   3  16    4.40   25.60
  -9   4 -16   30.20   22.40
  -9  -4  16   12.30   27.90
   9  -4 -16   10.10   19.00
   9  -4  16   35.60   14.50
  -9  -4 -16   20.20   18.40
  -9   4  16    8.60   22.70
   0   0 -17   24.00    9.90
   0   0 -17   29.30    9.90
   0   0  17   20.40    9.60
   0   0 -17   15.30    7.80
   0   1  17  -11.70    8.40
   0  -1 -17   -5.00    7.80
   0   1 -17    0.30    8.70
   0   1 -17    3.10    9.70
   0   1 -17   11.00   10.50
   0   1 -17    2.70    7.00
   0  -1 -17    9.50    8.70
   0  -1 -17    7.70    6.30
   0  -1 -17    0.70    8.40
   0  -1  17   -7.40    4.90
   0   2  17    6.30    8.20
   0  -2 -17   27.00    9.40
   0  -2 -17   30.00   11.40
   0   2 -17   15.10   10.70
   0  -2  17   20.90    9.00
   0  -2  17   13.10    5.90
   0   2 -17   24.70   12.50
   0   2 -17   34.90    8.10
   0   2 -17   41.40   15.60
   0  -2 -17   24.90   10.50
   0  -2 -17   46.70    6.80
   0  -3 -17   -0.50    9.20
   0  -3 -17    3.30    7.20
   0  -3 -17   -0.60   10.90
   0   3 -17   -8.40   11.60
   0   3  17    3.60    8.20
   0   3 -17    0.30   13.90
   0  -3  17    0.50    4.50
   0  -3  17   -4.80    7.60
   0   3 -17   -3.40    4.90
   0  -4 -17   21.40    7.40
   0  -4 -17   28.00   13.70
   0  -4  17   16.70    5.50
   0  -4 -17   25.30   11.50
   0   4 -17  -26.60   14.10
   0  -4  17   24.30    8.60
   0   4 -17   36.60   19.90
   0   4 -17   15.00    8.30
   0   4  17   16.80    4.60
   0   5 -17   10.40    6.60
   0  -5 -17   -9.90    7.60
   0  -5  17    3.70    8.30
   0  -5  17   -4.60    5.20
   0   5 -17    8.20   20.70
   0  -5 -17  -12.30   15.70
   0  -5 -17   -3.70    5.90
   0  -5 -17   -1.30   11.30
   0   6 -17   79.89   34.20
   0  -6  17   81.89   10.80
   0  -6 -17   68.69   24.10
   0  -6  17   81.09   14.60
   0  -6 -17   96.09   18.80
   0   6 -17   81.39   10.50
   0  -6 -17   85.69   13.50
   0  -7  17   10.20    7.50
   0   7 -17  -37.10   28.20
   0  -7 -17  -24.70   16.50
   0  -7  17    1.70   11.00
   0  -7 -17  -13.20   13.80
   0  -7 -17   -6.50    7.90
   0  -8 -17  -52.69   17.70
   0  -8  17    6.90    8.30
   0  -8  17    6.80   12.80
   0   8 -17  -41.80   32.40
   0  -8 -17  -26.70   14.40
   0  -8 -17   14.80   10.20
   0  -9  17    3.80    9.90
   0  -9  17    1.90   15.30
   0  -9 -17    7.00   12.30
   1   0 -17  -19.60    8.30
   1   0 -17   -8.00    7.40
  -1   0 -17   -7.40    6.20
   1   0 -17  -15.70    8.10
  -1   0 -17   -5.40    6.70
   1   0  17    1.00    7.20
  -1   0  17   -3.30    9.00
   1   0 -17  -15.20    6.20
  -1   0 -17   -4.90    7.30
  -1  -1  17  510.55   46.30
  -1   1 -17  606.84   46.10
   1  -1 -17  621.54   44.30
  -1  -1 -17  417.86   45.50
   1   1 -17  458.95   46.50
   1   1 -17  624.64   48.30
  -1  -1 -17  430.26   44.70
   1   1 -17  527.85   44.80
   1  -1  17  504.25   44.90
   1   2  17   99.59   13.00
  -1   2 -17  141.89   19.70
  -1  -2  17   80.49   14.10
  -1   2 -17   90.49   14.20
  -1   2 -17   88.69   12.00
   1  -2 -17   90.39   13.70
   1  -2 -17  100.49   17.20
   1  -2 -17   99.59   17.20
  -1   2  17   46.60   14.80
   1  -2  17   97.19   12.70
   1  -2  17  107.89   11.90
   1   2 -17  120.59   22.40
  -1  -2 -17   80.59   12.80
  -1  -2 -17  120.19   17.80
   1   2 -17   59.19   13.10
   1   2 -17   66.59   10.20
   1  -3 -17  819.42   77.59
   1  -3 -17 1106.39   78.99
  -1  -3  17  938.61   75.79
  -1  -3  17  877.71   72.29
  -1   3 -17  799.02   73.39
  -1   3 -17  868.21   72.49
  -1  -3 -17  789.82   73.89
   1   3 -17  950.70   82.39
   1   3 -17  961.90   71.49
  -1  -3 -17  799.02   73.59
  -1  -3 -17 1095.39   79.39
   1   3 -17  855.61   74.69
   1  -3  17  940.01   72.89
  -1   3  17  837.62   76.49
   1  -3  17 1001.80   74.79
  -1   4 -17   73.19   14.20
  -1  -4  17   78.59   14.70
  -1   4 -17  109.99   22.60
   1  -4 -17   80.09   16.70
   1  -4 -17   63.39   17.80
   1  -4 -17   89.59   10.70
  -1   4 -17   77.59    8.30
  -1   4 -17   79.09    9.50
  -1   4 -17  132.89   27.10
  -1  -4  17   82.39    9.20
  -1  -4 -17   32.90   12.20
   1  -4  17   87.09   12.70
   1  -4  17   91.79   10.60
   1   4 -17   62.69   23.30
   1   4 -17   83.19   11.60
  -1  -4 -17   78.89   11.80
  -1  -4 -17   56.59   12.00
  -1  -4 -17  116.79   20.60
  -1   4  17   62.09    7.70
   1  -5 -17  287.47   24.00
  -1  -5  17  266.27   22.40
  -1  -5  17  258.17   27.00
  -1   5 -17  251.87   31.50
   1  -5 -17  178.58   31.60
   1  -5 -17  218.08   28.70
   1  -5  17  286.47   26.50
  -1  -5 -17  210.18   27.30
   1   5 -17  276.67   23.80
   1  -5  17  263.37   23.20
  -1  -5 -17  241.48   23.50
   1   5 -17  234.38   40.60
  -1  -5 -17  373.66   35.20
  -1  -6  17   56.79   13.70
  -1  -6  17   69.49    9.00
   1  -6 -17   13.70   14.30
  -1   6 -17   92.89   31.60
   1  -6 -17    6.80   19.10
   1  -6 -17   64.59   10.80
  -1  -6 -17   92.89   24.20
  -1  -6 -17   42.70   14.40
  -1  -6 -17   56.49   11.30
   1  -6  17   47.60   13.10
   1  -6  17   63.49    9.90
   1   6 -17   -7.90   23.40
   1  -7 -17  240.08   24.10
  -1  -7  17  225.38   22.30
  -1   7 -17  294.37   50.79
  -1  -7  17  233.58   27.90
  -1  -7 -17  293.47   43.60
   1  -7  17  217.78   22.40
   1  -7  17  257.27   27.10
  -1  -7 -17  231.68   24.20
  -1  -7 -17  317.17   32.80
  -1  -8  17    2.80    8.00
   1  -8 -17    4.60    9.00
  -1  -8  17    3.70   15.20
  -1   8 -17  -19.90   33.50
   1  -8 -17  -45.00   17.50
  -1  -8 -17   -5.60   17.60
   1  -8  17    7.00    9.00
   1  -8  17    5.90   13.70
  -1  -8 -17    1.90   10.00
  -1  -8 -17  -34.20   21.90
   1  -9 -17   65.09   26.60
  -1   9 -17   41.90   46.40
  -1  -9  17  138.89   17.10
  -1  -9  17   96.89   21.40
   1  -9 -17  124.59   18.60
  -1  -9 -17   36.80   30.70
   1  -9  17  122.29   16.20
  -1  -9 -17  110.89   17.80
   1  -9  17  112.89   22.70
   2   0 -17   -5.90    6.60
   2   0  17   -0.50    6.30
  -2   0  17   10.30   10.90
  -2   0 -17   -2.30    6.60
   2   0 -17  -10.70    6.60
   2   0 -17   -3.90    7.10
  -2   0 -17   -7.70    4.50
  -2   0 -17   -4.40    8.50
  -2   1 -17   -7.20    7.70
  -2  -1  17   -1.00    9.60
   2  -1 -17    9.80    7.40
   2   1  17   11.30    5.40
   2  -1 -17   15.90    5.80
  -2   1 -17   12.60    7.60
   2  -1 -17   -0.60    8.60
   2   1 -17   22.80    6.70
  -2  -1 -17   15.80    7.90
   2   1 -17    0.90    9.10
  -2  -1 -17   32.20    6.40
  -2  -1 -17   16.20    9.60
  -2   1  17   13.70   11.70
   2   1 -17   18.00    8.10
   2   1 -17   -1.70    3.30
  -2  -1 -17   15.10    8.10
   2  -1  17    7.90    5.70
   2  -2 -17   -2.60    6.50
  -2  -2  17    1.30    8.90
  -2   2 -17    2.90    6.50
   2  -2 -17   -5.10    8.90
  -2  -2  17   13.60    5.20
  -2   2 -17   -5.90    8.80
   2   2 -17   -9.50   10.80
   2  -2  17   11.40    6.20
  -2  -2 -17    6.80    7.50
   2   2 -17   11.20    4.80
   2  -2  17   22.70    7.10
  -2  -2 -17   16.30    7.60
   2   2 -17   13.20    7.40
  -2  -2 -17    7.20   10.00
  -2   3 -17   42.90   13.70
   2  -3 -17   30.60   11.80
   2  -3 -17   14.10   11.70
  -2   3 -17   18.60    8.70
  -2  -3  17   58.99    6.90
   2  -3 -17   43.70    7.30
  -2  -3  17   46.00   12.50
  -2  -3 -17   33.80   10.60
   2  -3  17   68.99    9.30
   2   3 -17    5.10   14.40
  -2  -3 -17   60.39    9.80
  -2   3  17   39.30   13.80
   2  -3  17   57.39    9.30
   2   3 -17   46.80    9.10
  -2  -3 -17   39.70   15.80
  -2   4 -17   84.89   18.60
  -2  -4  17   58.79    7.50
   2  -4 -17   62.69    8.80
  -2  -4  17   58.29   13.50
   2  -4 -17   39.90   12.80
   2  -4 -17   14.20   13.90
  -2   4 -17   65.69   12.20
  -2  -4 -17   48.80   12.30
   2   4 -17   13.50   17.90
  -2  -4 -17   75.79   18.30
   2  -4  17   59.59   10.60
   2   4 -17   56.19    9.30
   2  -4  17   69.59    9.30
  -2   4  17   75.89   16.30
  -2  -4 -17   62.49   10.10
  -2  -5  17    8.10    4.90
  -2   5 -17   17.00   17.50
  -2   5 -17   35.20   22.20
   2  -5 -17  -10.50    9.20
  -2  -5  17   -4.10    9.80
   2  -5 -17    5.00    5.70
  -2   5 -17   -0.10    9.30
   2  -5 -17  -23.20   12.50
   2   5 -17  -26.60   16.90
  -2  -5 -17    8.00    6.90
   2  -5  17    5.90    6.20
   2  -5  17    1.30    7.80
  -2  -5 -17   10.80   16.30
  -2  -5 -17   -4.80    9.90
  -2  -6  17   15.80    6.10
  -2   6 -17   27.60   21.30
  -2  -6  17   17.00   11.90
  -2   6 -17   50.79   27.60
   2  -6 -17   10.30   11.50
   2  -6 -17   27.30    8.50
   2  -6 -17   -3.50   14.30
  -2  -6 -17   24.40   20.60
   2  -6  17   18.50   10.30
   2   6 -17  -37.80   19.80
  -2  -6 -17    4.10   10.10
  -2  -6 -17    8.80    9.40
  -2  -6 -17   24.10    8.40
   2  -6  17   21.90    8.10
  -2  -7  17    4.00   14.10
   2  -7 -17    6.70   10.50
   2  -7 -17    8.70    8.30
   2  -7 -17  -12.30   15.20
  -2   7 -17   45.60   30.70
  -2  -7  17   -2.50    6.40
  -2  -7 -17   21.00   24.30
   2  -7  17   -0.40   10.00
   2  -7  17    1.10    7.20
  -2  -7 -17   -1.80   12.10
  -2  -7 -17   -6.90   10.90
   2  -8 -17   42.50   11.50
  -2   8 -17   64.99   37.20
  -2  -8  17   41.70   10.00
  -2  -8  17   37.70   16.40
   2  -8 -17    2.40   19.00
  -2  -8 -17   31.40   12.20
   2  -8  17   52.19   15.80
  -2  -8 -17   40.50   30.50
   2  -8  17   35.20   11.00
  -2  -8 -17   46.30   17.90
  -2  -9  17    9.40    9.30
  -2  -9  17    6.50   18.50
  -2   9 -17  -18.80   37.00
   2  -9 -17    9.30   11.70
   2  -9 -17   -0.80   22.90
  -2  -9 -17  -13.40   29.80
   2   9 -17  -59.39   27.90
   2  -9  17    1.90   16.30
  -2  -9 -17   -0.20   13.60
   2  -9  17    5.40   10.80
   3   0 -17    0.90    7.60
  -3   0 -17   -2.20    6.60
   3   0 -17    3.40    5.50
  -3   0 -17    1.60    7.90
   3   0  17    0.90    2.80
   3   0 -17    2.30    6.30
  -3   0  17   -0.10   12.50
   3   0 -17   19.40    3.80
   3  -1 -17  849.02   67.69
   3  -1 -17  778.72   70.59
  -3   1 -17  858.61   71.99
   3  -1 -17  830.32   70.99
  -3   1 -17  849.32   70.59
  -3  -1  17  720.83   72.89
   3  -1  17  968.90   69.19
   3   1 -17  937.01   69.69
  -3   1  17  845.12   69.19
   3   1 -17  834.62   70.59
  -3  -1 -17  863.81   70.89
  -3  -1 -17  797.62   68.19
  -3  -1 -17  855.61   70.19
  -3   1  17 1024.60   76.79
   3   1 -17  697.13   72.19
   3   1 -17  871.51   67.69
   3  -2 -17    3.20    6.10
  -3   2 -17    3.70    6.70
   3  -2 -17    1.10    4.00
  -3  -2  17  -13.90    8.60
   3  -2 -17   -1.50    8.80
  -3  -2  17   -5.10    5.20
  -3   2 -17   -7.90    9.10
  -3  -2 -17   -0.80    7.40
  -3  -2 -17    9.80   11.50
   3  -2  17    2.00    4.90
  -3  -2 -17    1.30    7.50
   3   2 -17   -9.80    9.70
   3   2 -17    0.40    2.50
   3   2 -17    0.80    5.40
   3  -2  17   -1.70    6.50
   3   2 -17   10.90    6.90
  -3  -2 -17    9.80    3.80
   3  -3 -17  180.08   15.70
  -3  -3  17  140.59   15.40
   3  -3 -17  171.68   21.80
  -3   3 -17  169.18   18.60
  -3  -3  17  172.08   22.70
   3  -3 -17  181.58   20.10
  -3  -3 -17  197.68   20.30
  -3   3  17  122.99   24.00
   3  -3  17  199.78   17.50
  -3   3  17  155.58   14.80
  -3  -3 -17  169.98   17.60
   3   3 -17  178.08   18.00
   3   3 -17  136.49   26.70
   3   3 -17  168.18   14.30
   3  -3  17  208.58   17.50
  -3  -3 -17  197.88   28.50
  -3  -4  17   71.19    7.60
  -3   4 -17   33.20    9.90
   3  -4 -17   81.49   13.50
  -3  -4  17   53.69   14.90
   3  -4 -17   71.59    9.10
   3  -4 -17   62.09   17.50
  -3   4 -17   63.19   18.50
  -3  -4 -17   47.90   12.50
   3  -4  17   67.29   10.70
  -3  -4 -17   80.79   11.30
   3   4 -17   30.20   19.70
   3  -4  17   78.59   11.10
  -3   4  17   51.59   17.80
  -3  -4 -17   66.09   20.00
   3  -5 -17  661.83   55.29
   3  -5 -17  602.34   57.79
  -3   5 -17  557.14   53.69
  -3  -5  17  613.54   56.49
  -3  -5  17  590.34   50.59
  -3   5 -17  690.63   59.59
   3  -5 -17  640.44   51.69
  -3  -5 -17  712.83   63.39
  -3  -5 -17  599.44   55.29
   3  -5  17  643.14   52.09
  -3  -5 -17  672.73   52.59
   3  -5  17  604.44   53.09
  -3   6 -17    6.40   21.50
  -3  -6  17    7.50   12.70
  -3   6 -17   45.10   26.50
  -3  -6  17    2.10    5.00
   3  -6 -17   -1.80   14.30
   3  -6 -17   15.80   10.00
   3  -6 -17    0.40    7.30
  -3  -6 -17   19.00   21.60
   3  -6  17    4.90    8.50
   3  -6  17    2.20    9.30
   3   6 -17  -27.90   20.70
  -3  -6 -17   -2.40   10.00
  -3  -6 -17    5.70    7.90
  -3  -7  17  132.09   23.40
  -3   7 -17  236.58   48.60
   3  -7 -17  123.09   17.10
   3  -7 -17   92.69   23.70
  -3  -7  17  122.39   13.20
   3  -7 -17  124.89   15.40
  -3   7 -17   72.29   28.20
   3  -7  17  117.79   15.40
  -3  -7 -17  105.79   17.80
  -3  -7 -17  190.48   37.80
   3  -7  17  100.29   18.00
  -3  -7 -17   97.19   19.30
   3   7 -17   16.70   33.10
   3  -8 -17    5.10    8.90
  -3   8 -17   26.90   36.70
   3  -8 -17   12.40   18.80
  -3  -8  17   -0.80   15.60
   3   8 -17  -27.60   27.40
   3  -8  17    6.60   10.20
  -3  -8 -17    8.40   13.60
  -3  -8 -17    7.90   30.80
   3  -8  17    5.20   13.90
  -3  -8 -17   30.70   13.00
   3  -9 -17   45.20   23.40
  -3  -9  17   70.29   21.90
  -3   9 -17  125.19   52.79
   3  -9 -17   75.49   15.20
   3  -9  17   73.39   20.10
  -3  -9 -17   88.59   45.80
  -3  -9 -17   58.99   15.30
   3   9 -17  -14.70   34.40
   3  -9  17   84.69   15.20
   4   0 -17    6.70    9.20
   4   0 -17   12.70    3.70
  -4   0  17   17.20   13.60
   4   0 -17   14.60    8.00
  -4   0 -17    6.10    7.00
   4   0 -17    2.90    2.10
   4   0 -17   16.10    7.60
  -4   0 -17   11.00    9.70
  -4  -1  17   75.39   17.70
   4  -1 -17   79.69    8.10
   4  -1 -17  104.49   15.20
  -4   1 -17   88.39   15.10
   4  -1 -17   74.09   12.10
  -4   1 -17   78.99   12.40
   4   1 -17  106.19   12.70
  -4  -1 -17   81.79   13.30
  -4   1  17   93.89   20.20
  -4  -1 -17   86.79   13.20
   4   1 -17   86.39   12.90
   4   1 -17   95.19   17.70
  -4  -2  17   -5.00   10.20
  -4   2 -17    9.30   10.90
   4  -2 -17   20.80   10.10
   4  -2 -17   29.40    8.90
   4  -2 -17   19.70    4.50
  -4   2 -17   23.60    8.50
   4   2 -17   20.00   14.10
   4   2 -17   24.50    7.40
  -4  -2 -17   23.00    9.10
  -4  -2 -17   25.40    9.20
   4  -2  17   22.10    5.40
   4  -2  17   12.90    8.10
   4   2 -17   14.60    6.30
  -4   2  17  -21.60   12.60
   4  -3 -17   23.10    9.10
  -4   3 -17   21.10    8.10
  -4  -3  17    2.40   13.60
   4  -3 -17   23.70   11.50
   4  -3 -17   27.80    5.60
  -4   3 -17   12.50   13.90
  -4  -3 -17   23.90    9.10
  -4   3  17   -1.30   15.20
   4   3 -17   29.20   17.40
  -4  -3 -17   13.20    9.40
   4  -3  17   21.40    8.80
   4  -3  17   24.00    6.60
   4  -4 -17   17.40   13.90
  -4   4 -17   -0.20   11.60
   4  -4 -17   10.40    5.60
  -4   4 -17    1.50    7.70
   4  -4 -17   19.50    8.70
  -4  -4  17   11.70   13.10
  -4  -4 -17   30.10   17.70
   4   4 -17   24.40   18.00
  -4  -4 -17   21.50    8.90
  -4  -4 -17   17.80   10.00
  -4   4  17   16.50   14.50
   4  -4  17   13.00    7.10
   4  -4  17   24.00    8.00
  -4   5 -17   46.90   19.60
  -4  -5  17   38.40   16.80
   4  -5 -17   39.30   15.60
  -4   5 -17   31.10    9.10
   4  -5 -17   44.30    8.40
   4  -5 -17   46.80   10.80
  -4  -5 -17   21.00   20.10
   4  -5  17   44.60   10.70
  -4   5  17   53.59   18.90
   4   5 -17    8.00   22.20
  -4  -5 -17   33.80   12.10
   4  -5  17   33.20    9.80
  -4  -5 -17   34.90   10.10
   4  -6 -17   14.20    9.60
  -4   6 -17   23.30   21.30
  -4  -6  17   19.90   15.30
   4  -6 -17   23.00   17.30
   4  -6 -17   18.50    8.20
   4  -6  17   22.90    9.20
   4  -6  17   25.90   10.40
  -4  -6 -17   29.50   12.50
  -4  -6 -17   18.40   23.20
  -4  -6 -17   25.50    9.90
   4   6 -17    8.30   23.20
   4  -7 -17    5.50   18.30
  -4   7 -17   75.89   33.10
  -4  -7  17    2.00   17.40
   4  -7 -17   10.30    8.60
   4  -7 -17    8.10    9.20
  -4   7 -17    1.90   24.50
  -4  -7 -17  -19.30   11.50
  -4  -7 -17   25.50   27.40
   4  -7  17   -0.90    9.80
   4   7 -17  -27.80   24.90
  -4  -7 -17   15.60   12.40
   4  -7  17    1.10   11.80
   4  -8 -17   -4.60   16.80
  -4   8 -17  -35.90   24.80
   4  -8 -17   28.50   11.00
  -4  -8  17   16.20   17.50
  -4   8 -17   54.09   37.40
   4  -8  17    4.60    9.80
   4   8 -17   -3.70   30.00
  -4  -8 -17   18.20   14.20
   4  -8  17   16.90   14.40
  -4  -8 -17    4.20   37.20
  -4  -8 -17   35.20   14.80
  -5   0 -17    7.80   10.50
   5   0 -17    4.70    8.90
  -5   0  17    4.80   14.80
  -5   0 -17   -2.00    7.10
   5   0 -17    5.20    7.80
  -5  -1  17  230.28   29.40
  -5   1 -17  214.68   22.70
  -5   1 -17  188.08   20.60
   5  -1 -17  167.78   19.90
   5  -1 -17  228.98   22.30
   5  -1 -17  178.38   16.50
   5   1 -17  229.18   21.40
  -5  -1 -17  200.68   21.30
  -5   1  17  222.98   30.20
   5   1 -17  205.68   26.90
  -5  -1 -17  204.98   22.10
   5  -2 -17    0.40    3.50
   5  -2 -17   10.40   10.20
  -5   2 -17   -2.80   11.10
  -5   2 -17    0.20    6.80
  -5  -2  17   -4.20   12.80
   5  -2 -17    6.00    6.40
  -5  -2 -17    1.80    8.30
  -5  -2 -17    0.50    8.10
   5   2 -17    5.70    8.20
   5  -2  17  -18.00    8.60
   5   2 -17   -2.80   13.20
  -5   2  17  -35.60   12.90
   5  -3 -17  583.64   48.90
  -5   3 -17  528.55   51.09
  -5   3 -17  565.54   48.00
   5  -3 -17  537.15   45.30
   5  -3 -17  613.94   51.39
  -5  -3 -17  557.24   49.20
   5   3 -17  517.65   54.79
  -5  -3 -17  542.55   48.10
   5  -3  17  576.24   48.00
   5  -4 -17   26.80   13.20
   5  -4 -17   20.90    9.40
   5  -4 -17   19.10    6.10
  -5   4 -17    8.70    7.30
  -5   4 -17    2.70   15.40
  -5  -4  17   -0.90   14.40
   5  -4  17   14.90    9.60
   5  -4  17   15.50    8.90
  -5   4  17   14.30   15.90
  -5  -4 -17   23.00   10.10
   5   4 -17   11.60   17.90
  -5  -4 -17   19.00   10.80
  -5   5 -17   60.39   11.60
   5  -5 -17   49.00   16.80
  -5  -5  17   48.90   18.50
  -5   5 -17   24.40   16.90
   5  -5 -17   65.29    9.90
   5  -5 -17   55.89   12.10
  -5  -5 -17   77.79   13.80
   5   5 -17   49.10   25.10
  -5  -5 -17   63.09   14.40
  -5   5  17   75.59   20.30
   5  -5  17   75.09   12.30
  -5  -5 -17   91.79   28.20
   5  -5  17   54.49   11.90
   5  -6 -17   17.20    7.90
  -5   6 -17   -3.20   16.90
   5  -6 -17   -1.00   14.60
  -5  -6  17    2.00   15.80
   5  -6  17    5.60    9.00
   5  -6  17  -11.00   13.80
  -5  -6 -17    4.60   21.70
  -5  -6 -17    2.50   11.00
   5   6 -17   -4.10   23.10
  -5  -6 -17   10.20   11.70
   5  -7 -17  208.68   31.60
  -5  -7  17  234.78   33.40
   5  -7 -17  206.88   21.80
  -5   7 -17  253.57   38.70
  -5  -7 -17  191.18   26.30
  -5  -7 -17  155.18   22.70
   5  -7  17  209.58   23.10
  -5  -7 -17  223.28   43.50
   5   7 -17  222.08   45.60
   5  -8 -17    4.90   10.10
  -5   8 -17  -18.60   27.30
  -5   8 -17   82.99   40.20
   5  -8 -17   12.40   21.00
  -5  -8  17   -0.90   19.00
  -5  -8 -17   14.90   33.20
   5   8 -17   -4.10   31.60
   5  -8  17   10.20   10.90
  -5  -8 -17   33.40   16.90
  -5  -8 -17    1.10   11.70
  -6   0 -17   16.00    9.00
  -6   0  17   32.70   18.90
   6   0 -17   25.10   12.00
  -6   0 -17   30.20   11.70
  -6   1 -17   60.09   15.00
   6  -1 -17   55.09   13.60
  -6  -1  17   56.59   21.60
  -6   1 -17   43.90   11.00
  -6  -1 -17   58.99   14.30
  -6   1  17   41.70   22.20
   6   1 -17   59.39   13.10
  -6  -1 -17   46.60   11.80
  -6   2 -17   11.90   12.40
  -6   2 -17    5.10    7.90
  -6  -2  17    7.00   15.60
   6  -2 -17   18.50   13.10
   6   2 -17    1.30   16.50
  -6  -2 -17   13.50    9.80
  -6   2  17  -43.80   15.30
  -6  -2 -17   15.90   10.60
  -6   3 -17   49.00   11.50
  -6   3 -17   51.19   16.80
   6  -3 -17   68.09   16.20
  -6  -3  17   23.50   16.50
  -6  -3 -17   52.09   11.60
   6   3 -17   47.90   20.20
  -6   3  17   12.60   19.10
   6  -3  17   41.60   11.90
  -6  -3 -17   60.09   14.40
  -6   3  17   56.09   11.60
   6  -4 -17   15.10   13.60
  -6  -4  17   -0.40   14.80
  -6   4 -17    0.20   14.20
  -6   4 -17    7.70    7.90
   6  -4 -17   10.60    6.10
   6  -4  17   12.10    9.40
   6   4 -17    4.20   21.20
  -6   4  17    6.70   16.90
  -6  -4 -17   12.70   10.80
  -6  -4 -17   22.80   12.40
  -6  -5  17    8.80   16.90
  -6   5 -17   -2.10   15.50
  -6   5 -17    7.20    9.50
   6  -5 -17   10.50    7.00
   6  -5 -17   10.00   14.00
   6   5 -17    0.10   20.70
   6  -5  17    3.00    9.60
  -6  -5 -17    1.90   11.50
  -6  -5 -17    5.00   11.90
  -6   5  17   18.40   18.00
  -6  -5 -17   26.70   23.70
  -6  -6  17   16.10   21.00
   6  -6 -17   12.20    8.40
   6  -6 -17   19.00   16.30
  -6   6 -17   41.50   20.40
   6  -6  17   26.10   11.10
  -6  -6 -17   31.20   13.30
  -6  -6 -17   27.40   13.60
   6   6 -17   18.60   27.70
  -6  -6 -17   22.90   24.20
   6  -7 -17   17.10   19.40
  -6  -7  17   -1.40   19.70
  -6   7 -17   -3.40   24.10
   6  -7 -17   21.40   10.50
  -6  -7 -17    4.40   14.60
  -6  -7 -17   17.60   30.20
   6  -7  17   16.30   12.90
   6   7 -17    6.70   29.50
  -6  -7 -17    8.80   15.30
  -7   0  17  -15.00   21.40
   7   0 -17   14.60   11.30
  -7   0 -17    2.20    9.90
  -7   0 -17    2.30   13.50
  -7  -1  17  234.78   35.50
  -7   1 -17  172.58   21.00
  -7   1 -17  207.88   25.60
   7  -1 -17  172.08   24.10
  -7  -1 -17  172.98   22.40
  -7   1  17  128.99   33.20
  -7  -1 -17  171.88   21.90
   7   1 -17  185.08   23.10
  -7   2 -17   23.40   10.00
   7  -2 -17   21.50   15.20
  -7   2 -17   28.80   15.30
  -7  -2  17   19.30   20.70
  -7  -2 -17   20.70   12.70
  -7  -2 -17   18.10   11.50
  -7   2  17   26.30   12.40
  -7   3 -17   77.59   13.40
  -7   3 -17   83.69   21.70
   7  -3 -17   78.79   18.70
  -7  -3  17   59.09   24.50
  -7  -3 -17   99.29   18.30
   7  -3  17   87.39   16.30
  -7   3  17   20.90   24.80
   7   3 -17   61.79   23.70
  -7  -3 -17   71.19   15.40
  -7   4 -17   27.90   20.20
  -7   4 -17    5.70    8.70
  -7  -4  17    4.70   17.90
   7  -4 -17   12.90   15.40
  -7  -4 -17    9.10   12.50
  -7  -4 -17    5.30   13.40
   7   4 -17   10.20   23.30
  -7   4  17    0.50   19.10
   7  -4  17    7.10   10.70
   7  -5 -17  187.18   28.20
  -7   5 -17  118.79   26.40
  -7  -5  17  107.19   29.90
   7  -5  17  218.58   23.90
  -7   5  17  208.28   33.30
  -7  -5 -17  188.18   24.80
   7   5 -17  189.78   40.40
  -7  -5 -17  193.98   25.90
  -7  -6  17    7.80   20.50
  -7   6 -17   33.80   18.10
   7  -6 -17   34.90   19.20
   7  -6  17   14.80   13.10
  -7  -6 -17   36.00   29.30
   7   6 -17    2.60   27.00
  -7  -6 -17    6.60   13.50
  -7  -6 -17   22.00   15.80
  -8   0 -17    2.50   11.00
   8   0 -17    8.60   14.40
  -8   0  17  -12.30   25.60
  -8   0 -17   -0.70   15.30
   8  -1 -17   31.50   16.40
  -8  -1  17   12.30   24.30
  -8   1 -17   23.50   12.20
  -8   1 -17   23.60   17.60
  -8  -1 -17   11.50   12.40
  -8   1  17  -44.40   20.20
  -8   1  17   28.30   15.60
  -8  -1 -17   47.30   17.20
  -8  -2  17   23.50   26.50
  -8   2 -17    9.60   10.90
   8  -2 -17   28.80   16.90
  -8   2 -17   22.70   18.30
  -8  -2 -17   25.80   12.90
  -8   2  17   25.20   14.30
  -8  -2 -17   33.50   16.30
  -8   3 -17    1.30   16.00
  -8  -3  17   -5.20   23.80
   8  -3 -17   18.00   17.10
  -8   3 -17    8.30   10.40
  -8  -3 -17    7.50   12.80
  -8   3  17   -6.70   21.20
  -8  -3 -17    6.60   15.70
  -8  -4  17    5.90   19.60
  -8   4 -17   14.20   17.70
   8  -4 -17    5.80   16.20
  -8   4 -17   -4.10   11.00
  -8   4  17    7.50   21.70
   8  -4  17   18.60   14.00
  -8  -4 -17   17.00   13.40
  -8  -4 -17   10.80   15.70
  -8  -5  17    4.70   17.30
   8  -5 -17   19.00   19.90
  -8   5 -17   17.90   19.10
   8  -5  17   24.00   14.60
  -8   5  17   16.10   24.70
   8   5 -17   13.80   26.60
  -8  -5 -17    9.70   14.30
  -8  -5 -17    2.90   16.30
  -9   0  17    8.00   15.60
  -9   0 -17   -7.90   13.20
  -9   0 -17    1.30   17.80
  -9   0  17  -49.60   28.30
   9   0 -17   11.10   16.20
  -9   1 -17   79.59   21.30
   9  -1 -17  107.29   21.40
  -9   1 -17   71.39   17.60
  -9  -1  17   67.69   35.10
  -9   1  17  124.39   22.60
  -9  -1 -17   76.09   18.60
  -9  -1 -17   96.19   22.40
   9  -2 -17    7.40   15.80
  -9   2 -17   -0.80   16.50
  -9  -2  17  -15.60   28.80
  -9   2 -17    8.90   12.40
  -9  -2 -17   11.30   14.50
  -9  -2 -17   10.90   15.70
   9  -3 -17   66.49   20.40
  -9   3 -17   43.00   14.30
  -9  -3  17   72.59   34.50
  -9   3 -17   59.89   22.80
  -9  -3 -17   62.29   17.90
  -9   3  17   25.90   29.70
  -9  -3 -17   52.69   18.00
   9  -4 -17   15.70   17.80
   0   0 -18 3632.34  284.27
   0   0 -18 3648.44  283.57
   0   0 -18 3513.45  283.47
   0   0  18 3501.15  283.67
   0   0 -18 3421.76  284.27
   0  -1  18   -3.70    6.40
   0  -1 -18   -0.70    8.80
   0  -1 -18    0.40    8.70
   0  -1 -18   10.50    7.00
   0   1 -18    2.40    9.60
   0   1 -18    9.00   10.90
   0   1 -18   -0.60   11.70
   0   1  18  -13.70    9.10
   0   1 -18    6.90    7.90
   0  -1 -18   -1.80    9.50
   0  -2 -18  939.11   79.79
   0   2 -18 1043.90   83.09
   0   2 -18  919.81   80.29
   0   2 -18  911.21   79.19
   0   2 -18  971.50   76.79
   0  -2 -18  929.71   75.49
   0  -2 -18  867.71   79.19
   0  -2 -18  882.61   77.19
   0   3 -18  -10.30   12.30
   0   3 -18    8.60   17.00
   0  -3 -18    2.20    7.60
   0  -3 -18    4.00    7.50
   0  -3 -18    4.20   12.60
   0  -3  18   -2.00    5.00
   0  -3  18   -6.90    8.10
   0   3 -18   -5.20    5.20
   0   3  18   -0.90    7.40
   0  -4 -18 1239.48   99.29
   0  -4  18 1064.59   96.59
   0  -4 -18 1183.28   95.19
   0  -4 -18 1273.17  101.29
   0  -4  18 1042.10   93.99
   0   4 -18 1339.87  107.39
   0  -5 -18   -3.00   15.00
   0   5 -18    8.60    7.40
   0   5 -18   15.50   22.50
   0  -5 -18  -11.90    8.20
   0  -5  18   -0.30    5.50
   0  -5 -18   -9.60    7.80
   0  -5  18   -0.50    9.80
   0  -5 -18   -4.20   11.20
   0  -6 -18  599.04   61.79
   0  -6  18  600.94   52.39
   0  -6 -18  796.42   60.99
   0  -6 -18  620.44   53.99
   0   6 -18  664.13   72.29
   0  -6  18  577.64   55.49
   0   6 -18  671.03   55.29
   0  -7 -18  -26.90   17.40
   0  -7 -18   -7.20   13.20
   0  -7  18    3.50    7.20
   0  -7  18    6.20   11.60
   0   7 -18  -17.50   28.20
   0  -7 -18   -7.60    8.50
   0  -8 -18   35.90   19.40
   0  -8 -18   -4.70   23.20
   0  -8  18   72.29   17.10
   0   8 -18    9.20   33.70
   0  -8  18   89.19   12.40
   0  -8 -18   88.59   14.50
   0  -9 -18  -59.59   25.10
   0  -9  18    7.00   10.20
   0  -9 -18    6.30   12.10
   0   9 -18  -74.89   30.50
   0  -9  18  -12.90   13.90
   1   0 -18    7.80   10.90
   1   0 -18   11.00    9.80
   1   0 -18   16.30   12.10
   1   0 -18   21.50   10.10
  -1   0  18   45.80   12.80
  -1   0 -18   -1.60    7.90
   1   0  18   49.00   10.70
  -1   0 -18   26.00   10.30
  -1   0 -18   24.00   10.50
   1  -1 -18   15.00    9.70
  -1  -1  18    0.40    8.30
   1  -1 -18   -1.10    9.40
  -1   1 -18   11.00    8.00
  -1   1 -18    5.70   10.40
   1  -1 -18   -8.60    5.30
   1  -1 -18   12.60   10.60
  -1   1 -18    1.10    7.40
   1   1 -18   -4.80    6.50
   1   1 -18  -19.20    7.80
  -1  -1 -18   -6.30    7.10
  -1  -1 -18   -5.50    7.00
   1   1 -18  -16.50   11.00
   1   1 -18    4.50   11.30
  -1  -1 -18    8.30    8.60
   1  -1  18    0.30    6.00
  -1   1  18    1.70    9.80
  -1   2 -18    5.40    8.30
   1  -2 -18   10.40   11.20
   1  -2 -18   -5.50   10.30
   1  -2 -18   -9.60    8.10
  -1   2 -18    8.90    6.90
  -1   2 -18   -0.80   11.60
   1   2  18   -0.90    6.90
  -1  -2  18   -5.90    7.70
   1  -2  18    2.50    7.30
  -1   2  18  -26.10    9.40
   1   2 -18  -34.80   12.20
  -1  -2 -18   10.60   10.00
  -1  -2 -18   -2.20    5.90
   1   2 -18   -6.10   13.40
   1   2 -18   -9.70    5.00
   1  -2  18    6.70    6.40
  -1  -2 -18   -6.00    6.70
  -1   3 -18   46.10   17.10
   1  -3 -18   25.80   12.50
  -1   3 -18    4.60    4.90
   1  -3 -18   13.00   12.40
  -1  -3  18   17.80    5.50
  -1   3 -18   25.90   10.10
  -1   3 -18   18.50    6.60
  -1  -3  18   20.00   10.50
  -1   3 -18   35.10   15.60
  -1  -3 -18   29.80   12.20
  -1  -3 -18    9.60    7.80
  -1  -3 -18   -3.40    8.00
   1  -3  18   16.00    5.80
   1   3 -18   25.90   18.60
  -1  -3 -18    4.60    5.90
  -1   3  18   14.50   11.90
   1   3 -18   15.00    9.30
   1  -3  18   25.20    8.70
   1   3 -18   18.50    3.50
  -1   4 -18    8.20    4.70
   1  -4 -18  -12.10   12.30
  -1   4 -18    5.80    9.50
  -1   4 -18   26.10   20.80
   1  -4 -18   -4.10   11.40
   1  -4 -18   -5.70    6.80
  -1   4 -18   -4.90   14.30
  -1  -4  18    5.30    5.10
  -1  -4  18    1.60    9.10
  -1  -4 -18   14.00   14.10
  -1   4  18   12.30   10.30
   1   4 -18    9.10    7.80
   1   4 -18  -17.20   19.40
  -1  -4 -18    2.90    6.90
   1  -4  18   -0.90    7.30
  -1  -4 -18   -2.40    8.80
   1  -4  18    1.00    5.20
  -1   5 -18    2.20   18.10
   1  -5 -18    8.70    7.90
   1  -5 -18  -12.00   14.00
  -1  -5  18   17.90    5.80
  -1   5 -18   30.90   24.50
   1  -5 -18    3.30   12.10
  -1  -5  18   12.50   10.40
  -1   5 -18  -21.70    7.30
   1  -5  18   13.10    8.70
   1   5 -18    2.80   21.00
   1  -5  18   17.50    7.00
  -1  -5 -18    3.40    6.70
  -1  -5 -18    9.10   10.60
  -1  -5 -18   34.10   18.70
   1   5 -18   23.40    7.50
   1  -6 -18    1.10    7.30
   1  -6 -18  -35.50   16.40
  -1  -6  18    5.00   10.70
  -1   6 -18   16.90   26.40
   1  -6 -18  -18.70   10.80
  -1   6 -18  -48.10   15.90
  -1  -6  18    3.70    5.90
  -1  -6 -18    8.60   19.80
  -1  -6 -18   -3.40   11.10
   1  -6  18    1.60    6.70
  -1  -6 -18    1.70   10.40
   1  -6  18    3.00    9.30
   1   6 -18  -27.60   22.50
   1  -7 -18  -24.90   17.10
   1  -7 -18  -27.10   12.30
  -1  -7  18   12.50    7.50
  -1   7 -18   41.10   35.20
   1  -7 -18   23.60    9.80
  -1  -7  18   31.20   14.80
  -1  -7 -18    4.80   10.10
   1  -7  18   11.00    8.00
   1   7 -18  -47.00   24.50
  -1  -7 -18   21.60   16.90
   1  -7  18   13.70   11.40
  -1  -7 -18   16.80   22.50
   1  -8 -18    4.70   10.80
  -1   8 -18    7.90   34.60
  -1  -8  18   -1.80   15.20
  -1  -8  18    1.40    8.10
   1  -8  18   -1.10   13.50
   1   8 -18  -72.69   31.40
  -1  -8 -18   -3.00   17.30
  -1  -8 -18    3.00   11.80
  -1  -8 -18  -21.80   26.80
   1  -8  18   -0.40    9.20
  -1  -9  18   24.00   10.40
   1  -9 -18   15.30   12.50
  -1   9 -18  -41.40   34.10
  -1  -9  18   23.80   16.90
   1  -9 -18  -35.70   20.50
  -1  -9 -18  -30.30   26.70
  -1  -9 -18   19.60   14.20
   1  -9  18   22.40   10.90
   1  -9  18   24.60   15.80
  -2   0 -18  462.85   44.00
   2   0 -18  551.94   45.50
  -2   0 -18  562.44   44.60
   2   0 -18  437.46   43.60
   2   0 -18  521.65   43.80
  -2   0 -18  466.55   42.00
   2   1  18   48.70    9.10
  -2   1 -18   14.00   11.60
   2  -1 -18   22.00   11.90
   2  -1 -18   35.90   12.40
  -2  -1  18   48.60   13.10
   2  -1 -18   67.59    9.80
  -2   1 -18   41.80   10.60
  -2  -1 -18   73.99   13.20
  -2  -1 -18   70.29   15.40
   2  -1  18   75.49   10.50
   2   1 -18   55.39    9.90
  -2   1  18   97.29   17.80
  -2  -1 -18   41.30   11.00
   2   1 -18   59.29   12.10
   2   1 -18   56.19   14.20
   2  -2 -18  977.60   94.79
  -2  -2  18 1052.29   95.49
  -2   2 -18  965.60   94.29
   2  -2 -18  990.00   94.99
   2   2 -18 1174.68   98.19
  -2  -2 -18 1369.66   95.39
  -2  -2 -18 1198.48   97.19
   2  -2  18 1382.16   92.49
   2  -3 -18  -32.10   11.40
  -2  -3  18   11.00   10.60
   2  -3 -18   13.40    6.10
  -2  -3  18   19.40    5.30
  -2   3 -18    4.90   11.80
   2  -3 -18  -21.50    9.20
  -2   3 -18   -0.40    7.80
   2   3 -18    8.50    3.20
   2   3 -18  -13.20   13.30
   2  -3  18   16.00    7.70
   2   3 -18   15.00    8.40
  -2  -3 -18    4.70    8.90
  -2   3  18  -12.00   11.20
  -2  -3 -18    7.70   12.70
  -2   3  18   30.50    5.60
   2  -3  18    7.10    7.00
  -2  -3 -18   18.60    8.50
  -2   4 -18  717.03   60.19
  -2  -4  18  637.24   51.89
  -2  -4  18  665.03   57.49
   2  -4 -18  608.54   52.49
  -2   4 -18  694.63   55.99
  -2  -4 -18  581.54   53.19
  -2  -4 -18  731.73   60.79
  -2   4  18  607.24   58.19
   2  -4  18  685.73   54.49
   2  -4  18  567.14   52.39
   2   4 -18  616.14   53.99
   2  -5 -18   16.70    7.40
   2  -5 -18  -24.20   13.50
  -2   5 -18   17.50   20.00
  -2   5 -18   15.50   10.30
  -2  -5  18   25.20    6.10
  -2  -5  18   24.60   12.40
  -2   5 -18   58.99   26.90
   2  -5 -18  -19.20   11.30
  -2  -5 -18    5.50    9.80
   2   5 -18   -8.70   19.70
   2   5 -18   20.10    7.70
  -2  -5 -18   22.40    8.40
   2  -5  18   17.30    7.50
   2  -5  18   18.00    9.60
  -2  -5 -18   24.10   17.70
   2  -6 -18  267.27   23.90
   2  -6 -18  152.78   33.20
   2  -6 -18  191.38   27.10
  -2  -6  18  304.07   31.00
  -2  -6  18  269.67   22.20
  -2   6 -18  317.57   41.20
   2  -6  18  243.28   25.80
  -2  -6 -18  396.16   39.70
   2  -6  18  264.17   23.80
   2   6 -18  150.88   39.80
  -2  -7  18    1.80   13.00
   2  -7 -18   10.20    8.20
  -2   7 -18   22.20   31.10
  -2   7 -18  -50.99   21.70
   2  -7 -18   -7.80   11.30
  -2  -7  18    6.70    6.70
   2  -7  18    6.30    7.50
  -2  -7 -18    7.20   13.50
  -2  -7 -18   12.40   24.80
   2  -7  18   -1.20   11.60
  -2  -7 -18   -3.30   10.10
  -2   8 -18  363.66   61.59
  -2  -8  18  254.77   24.30
  -2  -8  18  247.18   31.90
   2  -8 -18  165.18   34.90
   2  -8 -18  270.07   25.50
  -2  -8 -18  337.27   46.50
   2  -8  18  255.47   25.40
  -2  -8 -18  237.18   28.10
  -2  -8 -18  271.87   34.40
   2  -8  18  285.37   31.70
   2  -9 -18   33.50   12.50
  -2   9 -18    1.50   41.30
   2  -9 -18  -18.30   21.60
  -2  -9  18    5.20   17.10
   2  -9  18   17.50   17.30
   2  -9  18   26.10   12.10
  -2  -9 -18   15.40   14.50
  -2  -9 -18  -21.90   34.30
   3   0 -18   20.30    3.90
   3   0 -18    3.40    8.00
  -3   0 -18    0.10    7.30
   3   0 -18   11.60    7.90
   3   0 -18   -2.50    8.20
  -3   0 -18   -1.90    8.50
  -3   0  18    1.80   11.60
   3   0  18   -4.60    3.20
  -3  -1  18    7.30   10.80
  -3   1 -18   18.00    8.00
   3  -1 -18   22.20    9.40
  -3   1 -18   18.70   12.00
   3  -1 -18   16.10   10.30
   3  -1  18   13.40    6.30
  -3  -1 -18   14.00    5.00
  -3   1  18   11.30   12.90
   3   1 -18    7.10    4.40
   3   1 -18   23.50    8.40
   3   1 -18    0.20   10.00
   3   1 -18   19.90    7.60
  -3  -1 -18   24.10    8.60
  -3   1  18   12.90    6.00
  -3  -1 -18   28.40    9.90
   3  -2 -18    1.10   10.00
   3  -2 -18   23.70    5.10
  -3  -2  18   -9.80   10.50
  -3   2 -18   -2.10    9.80
   3  -2 -18   13.80    9.60
  -3   2 -18   18.50    8.40
   3   2 -18   22.10    6.80
  -3  -2 -18   21.20    8.90
   3   2 -18   -5.30   12.50
  -3   2  18  -15.20   14.50
  -3  -2 -18   12.50    8.80
   3  -2  18   18.70    8.80
  -3  -2 -18   23.90   14.10
   3   2 -18   21.90    8.40
   3  -2  18   14.40    6.30
   3   2 -18   16.80    3.60
  -3  -3  18   -5.50   10.30
  -3   3 -18  -26.00    8.60
   3  -3 -18    2.30    8.70
  -3   3 -18   -1.40    6.60
   3  -3 -18   10.00    5.00
   3  -3 -18   -5.30   12.40
   3   3 -18  -20.20   13.90
   3   3 -18   13.20    7.50
  -3   3  18  -23.80   11.40
  -3  -3 -18    5.30   13.10
   3  -3  18    1.50    5.90
  -3  -3 -18    9.90    8.10
   3  -3  18   13.10    7.60
  -3  -3 -18    5.90    9.00
  -3  -4  18    0.20   11.20
   3  -4 -18   -7.90   12.30
   3  -4 -18   -2.60    9.00
  -3   4 -18   -6.30   13.80
   3  -4 -18    7.80    5.80
  -3   4 -18   -0.30    6.90
  -3  -4  18    0.30    4.10
  -3  -4 -18  -10.20   14.00
   3  -4  18    5.40    7.70
  -3  -4 -18   -6.30    8.90
  -3  -4 -18    7.10    8.00
  -3   4  18    3.10   13.20
   3   4 -18  -34.80   14.30
   3  -4  18    0.10    6.60
   3   4 -18   12.10    6.90
   3  -5 -18   22.90    7.50
  -3  -5  18   32.60   14.00
  -3   5 -18   24.50    9.70
   3  -5 -18   -3.70   15.80
  -3   5 -18   38.40   19.50
  -3  -5  18   21.40    5.60
   3  -5 -18   21.80   10.40
  -3  -5 -18   41.10   20.00
   3  -5  18   33.10    9.40
   3   5 -18  -18.40   22.00
   3  -5  18   18.50    7.70
  -3  -5 -18   38.00    9.40
  -3  -5 -18   33.60   11.80
   3  -6 -18   -0.30    9.10
   3  -6 -18   -2.40    7.40
  -3  -6  18   -6.70   13.90
  -3   6 -18   35.60   26.10
  -3  -6  18    4.20    5.30
   3  -6 -18  -18.80   17.00
  -3   6 -18  -10.40   18.50
  -3  -6 -18    4.40    8.20
   3   6 -18  -47.60   20.70
  -3  -6 -18    2.40   11.00
   3  -6  18    1.40    8.50
   3  -6  18    2.20    9.50
  -3  -6 -18    1.50   20.20
  -3  -7  18   23.80   15.70
   3  -7 -18   18.30    9.10
   3  -7 -18   -5.50   16.80
  -3   7 -18  -21.50   23.30
   3  -7 -18   13.00    9.70
  -3   7 -18   36.70   31.50
  -3  -7 -18   12.40   11.00
   3  -7  18   12.30    8.90
   3   7 -18  -59.99   27.70
  -3  -7 -18    2.20   10.90
   3  -7  18    5.90   11.20
  -3  -7 -18   35.10   27.40
   3  -8 -18  -11.20   21.70
  -3   8 -18   37.40   37.80
  -3   8 -18  -58.49   24.10
   3  -8 -18   11.10   10.40
  -3  -8  18   17.10   18.50
   3  -8  18   -0.20   13.80
  -3  -8 -18   53.59   15.20
   3   8 -18  -60.09   26.60
   3  -8  18   10.10   10.60
  -3  -8 -18   -5.30   11.80
  -3  -8 -18   18.20   35.80
  -3  -9  18   18.80   21.30
   3  -9 -18  -18.40   23.20
  -3   9 -18   44.80   48.20
   3  -9 -18   20.40   12.50
  -3  -9 -18    1.10   35.40
   3  -9  18   12.30   16.70
   3   9 -18  -67.29   32.20
   3  -9  18   10.20   11.90
  -3  -9 -18   20.70   15.20
  -4   0 -18  883.01   68.79
   4   0 -18  714.83   64.79
  -4   0 -18  828.12   67.99
   4   0 -18  852.01   68.39
   4   0 -18  729.33   69.99
   4   0 -18  859.71   67.89
   4   0 -18  827.42   64.29
   4  -1 -18  137.59   17.60
  -4  -1  18  102.59   20.20
   4  -1 -18  129.19   16.30
   4  -1 -18  104.39   10.60
  -4   1 -18  121.19   15.30
  -4   1 -18  120.19   18.40
   4   1 -18  120.29   15.70
   4   1 -18  109.19   19.90
  -4   1  18  129.29   23.40
   4   1 -18  127.59   15.40
  -4  -1 -18  103.79   15.50
  -4  -1 -18  132.09   17.50
  -4   2 -18  497.85   46.50
   4  -2 -18  522.15   45.20
  -4   2 -18  527.75   43.50
   4  -2 -18  548.65   44.60
   4  -2 -18  484.55   40.10
   4  -2  18  405.56   40.70
   4  -2  18  454.15   42.80
   4   2 -18  530.35   43.50
  -4   2  18  367.56   48.40
   4   2 -18  582.04   42.60
   4   2 -18  431.36   48.50
  -4  -2 -18  540.25   44.30
  -4  -2 -18  511.65   42.80
   4  -3 -18    4.20    4.60
  -4  -3  18   -6.60   11.60
  -4   3 -18    6.80    7.50
  -4   3 -18  -10.40   11.20
   4  -3 -18   13.20    8.80
   4  -3 -18    4.20   11.50
   4  -3  18   -2.30    7.30
   4  -3  18   -0.30    5.50
  -4  -3 -18   13.20    8.50
  -4  -3 -18   -0.20    9.00
  -4   3  18  -36.70   14.60
   4   3 -18  -12.50   12.80
  -4  -3 -18    6.00   15.50
  -4   4 -18  380.96   36.80
   4  -4 -18  408.26   40.80
  -4  -4  18  373.16   41.60
   4  -4 -18  435.06   38.30
   4  -4 -18  413.66   34.50
   4  -4  18  424.86   36.00
  -4  -4 -18  450.75   39.00
  -4   4  18  346.27   44.30
   4  -4  18  427.66   36.10
  -4  -4 -18  363.46   44.10
  -4  -4 -18  423.56   36.30
  -4   5 -18   11.50    7.20
  -4   5 -18   -7.00   16.80
  -4  -5  18    6.00   13.90
   4  -5 -18    7.80    9.10
   4  -5 -18    8.10    6.70
   4  -5 -18   -2.60   13.60
  -4   5  18   17.70   15.80
  -4  -5 -18    3.80   10.50
  -4  -5 -18    6.00    9.20
   4  -5  18   -2.60    8.90
   4  -5  18   11.10    8.50
   4   5 -18  -20.20   21.20
  -4  -5 -18  -12.70   17.30
   4  -6 -18  182.78   29.50
  -4   6 -18  250.47   31.90
   4  -6 -18  197.18   20.30
  -4  -6  18  238.08   31.90
   4  -6 -18  219.58   24.00
  -4  -6 -18  194.88   21.50
  -4  -6 -18  228.58   27.60
   4   6 -18  125.09   37.10
   4  -6  18  182.08   20.60
   4  -6  18  205.68   23.20
  -4  -6 -18  323.87   44.80
  -4   7 -18  129.79   40.90
   4  -7 -18   44.60   20.60
   4  -7 -18   41.20   12.00
  -4   7 -18   74.59   30.00
   4  -7 -18   71.99   12.10
  -4  -7  18   50.79   19.50
  -4  -7 -18   33.00   14.90
  -4  -7 -18   74.29   31.30
   4  -7  18   40.30   12.60
   4   7 -18   -1.60   29.30
   4  -7  18   65.29   14.90
  -4  -7 -18   37.20   13.10
  -4   8 -18  136.39   45.10
  -4  -8  18   91.09   23.80
   4  -8 -18  109.79   15.80
   4  -8 -18   82.59   26.60
  -4   8 -18   91.29   34.40
  -4  -8 -18  174.78   43.30
   4  -8  18  109.09   20.90
   4  -8  18  120.29   17.00
  -4  -8 -18   97.69   20.30
  -4  -8 -18   86.89   17.40
   4   8 -18   61.99   38.60
   5   0 -18   22.00    9.60
  -5   0 -18   11.20    8.60
  -5   0  18   19.00   15.80
  -5   0 -18   28.50   12.50
   5   0 -18   22.20    9.20
  -5  -1  18   13.60   15.20
  -5   1 -18   16.80   11.20
   5  -1 -18   12.40    7.20
   5  -1 -18    6.50    3.50
   5  -1 -18   22.90   11.70
  -5   1 -18   11.10    8.00
   5   1 -18   14.50    8.80
  -5  -1 -18    9.30    8.70
   5   1 -18   13.90   14.00
  -5   1  18    9.70   15.80
  -5  -1 -18   22.10   11.10
  -5   2 -18    5.60    8.60
   5  -2 -18    0.20    3.80
  -5  -2  18  -12.20   12.50
   5  -2 -18   10.70    7.00
   5  -2 -18    4.80   11.80
  -5   2 -18    6.70   13.50
  -5  -2 -18    5.00   10.10
   5   2 -18    5.10    8.70
  -5  -2 -18    7.00    7.00
  -5   2  18  -32.90   14.20
   5   2 -18   -6.00   14.20
   5  -3 -18   29.80   10.00
   5  -3 -18   38.60   13.40
   5  -3 -18   20.70    5.50
  -5   3 -18   26.80   16.20
  -5   3 -18   17.40    8.40
  -5  -3  18   -2.40   14.00
  -5   3  18  -20.40   15.00
  -5  -3 -18   20.60   10.30
  -5  -3 -18   43.20   11.40
   5  -3  18   18.00    9.30
   5   3 -18   15.00   16.10
   5  -4 -18   10.70    5.90
   5  -4 -18    2.60    8.80
  -5   4 -18  -13.00   13.90
   5  -4 -18   16.60   13.40
  -5   4 -18    4.30    8.40
  -5  -4  18   -2.60   13.80
   5   4 -18   -8.60   17.10
   5  -4  18    1.80    8.30
  -5  -4 -18   -1.20   18.00
  -5   4  18   -1.40   15.70
  -5  -4 -18    9.30   10.20
  -5  -4 -18   11.40   10.70
   5  -5 -18   11.10    7.00
   5  -5 -18    6.30    9.10
   5  -5 -18    7.60   14.30
  -5   5 -18   13.40    8.90
  -5   5 -18   -5.80   14.20
  -5  -5  18   -1.20   15.30
   5   5 -18   -4.10   20.70
  -5  -5 -18    8.80   11.40
  -5   5  18   13.30   17.00
   5  -5  18    5.00    9.10
  -5  -5 -18   10.00   10.40
  -5  -5 -18    7.00   22.30
   5  -6 -18    8.50   15.30
  -5  -6  18   11.90   19.60
  -5   6 -18    6.50   19.90
   5  -6 -18    1.50    7.80
   5  -6 -18   11.70    9.30
  -5  -6 -18    3.20   10.60
  -5  -6 -18    6.40   25.20
  -5  -6 -18   -3.40   11.90
   5   6 -18  -29.30   22.50
   5  -6  18   -7.80   10.20
  -5   7 -18   50.99   27.20
   5  -7 -18   20.30   10.00
  -5  -7  18   25.70   19.10
   5  -7 -18   31.00   19.10
   5  -7  18   31.40   11.20
   5   7 -18  -17.50   31.40
  -5  -7 -18   45.20   17.20
  -5  -7 -18   70.19   34.50
  -5   8 -18   87.69   38.80
  -5  -8  18   -5.70   19.30
   5  -8 -18    0.70   10.70
  -5   8 -18  -24.90   29.00
   5  -8 -18   -7.50   19.00
  -5  -8 -18   40.40   33.80
  -5  -8 -18   -1.70   14.20
   5  -8  18    8.60   12.70
   5   8 -18  -19.90   31.40
   6   0 -18  459.35   43.50
  -6   0 -18  460.95   43.10
  -6   0  18  582.94   54.19
  -6   0 -18  453.75   42.40
   6  -1 -18   40.70   13.30
  -6   1 -18   16.60   12.60
  -6  -1  18   37.70   21.80
  -6   1 -18   25.40    9.90
  -6   1  18    4.80   18.20
  -6  -1 -18   21.20    8.70
  -6  -1 -18   19.20   12.70
   6   1 -18   37.40   12.10
  -6   2 -18  214.98   27.90
  -6   2 -18  174.88   20.80
   6  -2 -18  196.58   23.80
  -6  -2  18  174.08   30.10
   6   2 -18  232.18   23.50
  -6  -2 -18  175.28   22.10
  -6  -2 -18  191.18   23.00
   6   2 -18  174.98   32.70
  -6  -3  18    3.30   15.20
  -6   3 -18   35.50   16.70
  -6   3 -18   41.00   10.60
   6  -3 -18   45.00   15.80
   6  -3  18   43.10   13.50
  -6  -3 -18   34.80   13.50
  -6   3  18   48.50   11.90
  -6  -3 -18   38.00   10.70
   6   3 -18   29.90   21.90
  -6   4 -18  148.29   29.00
   6  -4 -18  180.38   24.60
  -6   4 -18  184.98   21.10
  -6  -4 -18  170.58   22.50
  -6   4  18  142.49   31.50
  -6  -4 -18  181.98   22.30
   6  -4  18  194.58   21.30
   6   4 -18  155.88   33.00
  -6   5 -18   10.80   11.40
  -6  -5  18    1.80   17.30
  -6   5 -18    1.20   15.30
   6  -5 -18   18.70    7.80
   6  -5 -18   10.40   15.50
   6   5 -18   -6.20   21.50
  -6  -5 -18   40.30   25.30
  -6  -5 -18    6.10   11.90
  -6   5  18   22.30   19.90
   6  -5  18    9.70   11.50
  -6  -5 -18   14.50   13.10
  -6  -6  18  152.28   30.50
   6  -6 -18  163.38   17.60
  -6   6 -18  117.99   28.40
   6  -6 -18  165.78   27.70
  -6  -6 -18  152.68   35.60
  -6  -6 -18  172.08   23.30
   6  -6  18  218.78   23.20
  -6  -6 -18  160.68   23.10
   6   6 -18  103.19   37.60
   6  -7 -18   -2.80    9.30
  -6  -7  18    2.80   20.10
   6  -7 -18    3.60   18.20
  -6   7 -18   -2.00   22.50
   6  -7  18    6.70   11.40
  -6  -7 -18   10.90   14.20
  -6  -7 -18   -1.20   25.90
   6   7 -18  -29.80   26.90
  -7   0  18    0.20   20.70
  -7   0 -18    2.10   14.00
  -7   0 -18    9.00   10.50
   7   0 -18   18.20   13.70
  -7   1 -18   12.20    9.80
  -7  -1  18   15.20   23.70
  -7   1 -18   18.30   14.10
   7  -1 -18   25.00   14.50
   7   1 -18   17.90   13.10
  -7  -1 -18    6.70   10.60
  -7  -1 -18   14.80   12.80
  -7   1  18  -12.60   21.80
   7  -2 -18   -6.30   14.50
  -7   2 -18    0.90    9.10
  -7  -2  18    0.30   21.70
  -7   2 -18   14.70   16.50
  -7  -2 -18    0.70   10.90
  -7  -2 -18    5.20   12.30
  -7   3 -18    9.50   15.80
  -7  -3  18   -6.10   17.70
  -7   3 -18    1.20    9.00
   7  -3 -18    2.50   14.60
   7   3 -18  -23.70   20.00
  -7  -3 -18   -0.60   11.20
  -7  -3 -18   14.90   13.90
   7  -3  18    9.00   11.20
   7  -4 -18   -0.50   15.10
  -7   4 -18    6.60    9.00
  -7  -4  18  -10.00   17.50
  -7   4 -18    7.80   16.90
  -7  -4 -18    3.80   12.40
   7  -4  18    1.50   13.10
  -7  -4 -18    2.70   12.10
  -7   4  18   -5.30   20.10
   7   4 -18   -3.90   20.70
  -7  -5  18    5.90   19.40
   7  -5 -18   14.70   16.90
  -7   5 -18   29.70   17.50
  -7  -5 -18   48.10   15.50
  -7  -5 -18   20.10   13.40
   7   5 -18  -31.60   25.20
  -7   5  18   32.20   24.70
   7  -5  18   24.10   13.30
  -7  -6  18    4.50   20.30
   7  -6 -18    3.30   17.80
  -7   6 -18   18.10   17.90
   7   6 -18  -23.40   29.70
  -7  -6 -18   10.60   28.40
  -7  -6 -18   11.80   14.30
  -7  -6 -18   14.10   15.60
   7  -6  18   28.50   14.30
  -8   0 -18   37.50   18.40
   8   0 -18   45.90   15.70
  -8   0  18   22.40   28.10
  -8   0 -18   24.90   12.40
  -8   1 -18    7.20   15.10
   8  -1 -18   12.20   14.10
  -8  -1  18   14.50   27.20
  -8   1 -18    1.20   11.20
  -8  -1 -18    6.80   16.00
  -8  -1 -18    4.10   11.90
  -8   1  18  -30.10   22.20
  -8  -2  18  239.88   39.00
  -8   2 -18  202.68   28.60
   8  -2 -18  193.58   26.30
  -8   2 -18  162.28   22.90
  -8   2  18  196.68   26.10
  -8  -2 -18  180.58   24.80
  -8  -2 -18  212.38   28.00
  -8  -3  18   15.50   23.10
  -8   3 -18   10.60   19.60
  -8   3 -18   -1.10   10.30
   8  -3 -18   10.50   15.70
  -8  -3 -18    1.80   12.60
  -8   3  18  -45.70   23.60
  -8  -3 -18   -0.90   15.70
  -8  -4  18   74.59   28.50
  -8   4 -18   91.19   23.70
   8  -4 -18   75.29   23.00
  -8   4 -18   66.19   14.40
   8  -4  18   94.19   19.30
  -8  -4 -18   85.99   18.10
  -8  -4 -18   76.89   19.60
  -8   4  18   39.20   26.00
  -8   5 -18   21.70   20.10
   8  -5 -18    3.20   18.30
  -8  -5  18   11.50   21.20
   8  -5  18   22.00   15.00
  -8  -5 -18   -5.60   13.40
  -8   5  18   -3.20   23.30
  -8  -5 -18   13.70   16.60
   8   5 -18  -13.80   28.90
  -9   0 -18    1.50   16.20
  -9   0  18  -56.69   28.10
  -9   0 -18   -8.80   13.00
   9   0 -18    8.40   17.20
  -9   0  18   -6.50   16.70
  -9   1 -18   10.00   13.30
  -9  -1  18  -30.60   25.40
   9  -1 -18   22.10   18.90
  -9   1 -18   16.00   20.10
  -9   1  18  -74.79   26.80
  -9  -1 -18   -1.70   13.70
  -9   1  18   13.10   16.30
  -9  -1 -18   13.00   17.90
  -9  -2  18   17.40   30.60
  -9   2 -18    0.20   12.30
  -9   2 -18   22.00   21.40
   9  -2 -18   14.00   18.60
  -9  -2 -18   14.00   18.20
  -9  -2 -18   -3.10   13.50
  -9  -3  18   -0.70   26.60
   9  -3 -18   32.60   20.70
  -9   3 -18   23.10   22.50
  -9   3  18  -49.30   25.80
  -9  -3 -18   12.20   18.20
   0   0 -19   50.19   13.30
   0   0  19   26.00   10.70
   0   0 -19   39.70   11.50
   0   0 -19   48.20   12.60
   0   0 -19   43.00   11.80
   0   1 -19   -3.40   11.80
   0  -1 -19    2.30    9.50
   0  -1 -19    2.10   10.20
   0   1 -19   -2.70    9.40
   0   1  19   -6.50   10.80
   0  -1 -19    0.70    7.40
   0  -1 -19    9.30    7.50
   0   1 -19    0.80    8.20
   0   1 -19   -0.30   10.50
   0  -1  19   -2.80    7.70
   0   2 -19    7.50    7.30
   0   2 -19   25.80   14.90
   0  -2 -19   13.30    9.30
   0   2 -19   12.50   12.70
   0  -2 -19   11.30   10.50
   0   2 -19    2.60   11.40
   0  -2 -19   14.10    5.40
   0  -2  19   -4.20    7.80
   0  -2 -19   12.30   10.70
   0  -3 -19    2.10    8.40
   0  -3 -19    0.20   10.40
   0   3  19   -5.30    9.50
   0   3 -19   -9.30    5.60
   0   3 -19   -5.60   14.90
   0  -3 -19  -10.90   11.30
   0   3 -19   -3.70   14.90
   0  -3  19    5.90    9.30
   0  -3  19   -5.30    5.50
   0   3 -19  -14.70    9.70
   0  -4  19   79.99   14.50
   0   4 -19   54.79   19.90
   0  -4 -19   78.29   16.20
   0  -4 -19   67.89   18.60
   0  -4  19   63.79   10.00
   0  -4 -19   80.69   12.20
   0   4 -19  103.29   26.00
   0   5 -19   -3.50    8.30
   0  -5 -19   -6.40   11.80
   0  -5 -19   -1.00   15.30
   0   5 -19   -2.00   21.90
   0  -5  19   -5.30   10.30
   0  -5  19    4.00    6.20
   0  -5 -19  -14.60    7.50
   0  -6  19   19.60    7.50
   0  -6  19   29.40   12.80
   0   6 -19   31.00   28.00
   0  -6 -19   25.00   14.50
   0  -6 -19   18.80    9.60
   0  -6 -19   25.00   19.40
   0  -7  19   -0.70    7.70
   0  -7 -19  -38.00   18.30
   0  -7  19    9.20   12.00
   0  -7 -19  -12.40   15.80
   0  -7 -19   -5.50   11.00
   0   7 -19  -31.70   29.10
   0  -8 -19  -27.10   15.80
   0  -8 -19  -16.60   22.70
   0  -8  19    9.60   13.50
   0  -8  19   10.00    9.20
   0  -8 -19   13.50   12.70
   0   8 -19  -15.50   33.60
   0  -9  19    6.90   17.60
   0  -9 -19    2.00   13.40
   0  -9  19    0.30   10.10
   0   9 -19  -64.19   34.40
   1   0 -19  -13.90    8.00
  -1   0 -19   -3.00    7.60
   1   0 -19  -25.10   10.50
   1   0 -19   -7.10    9.10
  -1   0 -19   -6.40    7.50
  -1   0  19    6.60   11.00
   1   0  19    0.50    8.20
   1   0 -19    2.40   10.30
  -1   0 -19   -6.60    7.60
  -1   1 -19  973.80   71.49
  -1  -1  19  774.02   70.49
   1  -1 -19  847.32   68.39
  -1   1 -19  745.13   69.59
   1   1 -19  987.00   72.19
   1   1 -19  812.12   69.29
   1   1 -19  777.12   71.29
   1  -1  19  752.82   68.89
  -1   2 -19   65.89   12.80
   1  -2 -19   78.19   16.10
   1   2  19   36.00   10.60
   1  -2 -19   82.79   16.20
  -1   2 -19   83.09   16.00
  -1   2 -19   50.79   10.40
  -1  -2  19   36.00   12.20
   1  -2 -19   69.89   12.90
   1  -2  19   49.90   10.70
  -1  -2 -19   91.59   16.90
  -1   2  19    0.80   12.00
  -1  -2 -19   31.20   10.00
   1   2 -19   24.90   16.90
   1   2 -19   13.20    7.60
  -1  -2 -19   18.70   10.80
   1   2 -19  107.19   21.50
  -1   3 -19 1305.27   97.39
  -1  -3  19 1094.19   96.99
  -1  -3  19 1084.89   93.09
   1  -3 -19 1238.28   98.89
   1  -3 -19 1060.49   98.39
  -1   3 -19 1227.18   98.69
   1  -3  19 1029.20   93.39
  -1  -3 -19 1288.17   99.69
   1   3 -19 1109.19   92.39
   1  -3  19 1116.59   95.29
   1   3 -19 1336.17  104.99
  -1   4 -19   65.89    9.50
   1  -4 -19   68.79   20.70
  -1   4 -19  116.59   26.40
  -1   4 -19   66.09   15.10
  -1  -4  19   90.29   10.00
  -1  -4  19   69.79   14.40
   1  -4 -19   64.89   16.70
  -1   4 -19   99.79   22.10
   1  -4 -19   63.99   11.70
  -1  -4 -19  102.19   20.40
   1   4 -19   65.69   26.60
  -1   4  19   64.39   17.00
   1  -4  19   86.29   11.00
  -1  -4 -19   41.50   10.70
  -1  -4 -19   49.90   14.20
   1  -4  19   71.19   13.10
   1   4 -19   68.49   13.00
  -1   5 -19  491.95   49.90
   1  -5 -19  360.56   32.00
  -1   5 -19  421.76   42.60
  -1  -5  19  342.87   30.30
   1  -5 -19  356.06   37.50
  -1  -5  19  382.96   35.50
   1  -5 -19  295.67   38.80
   1   5 -19  338.57   32.30
   1  -5  19  358.96   34.40
  -1  -5 -19  323.37   35.70
   1  -5  19  353.56   31.00
   1   5 -19  377.06   48.00
  -1   6 -19   -8.40   20.00
  -1  -6  19   49.30    8.50
  -1   6 -19   58.49   33.10
   1  -6 -19   48.00   11.20
  -1  -6  19   46.80   15.30
   1  -6 -19   14.40   14.30
   1  -6 -19    2.80   20.20
   1  -6  19   43.50    9.20
  -1  -6 -19   75.39   24.20
  -1  -6 -19   66.59   17.10
   1  -6  19   45.00   13.30
   1   6 -19   19.20   28.10
  -1  -6 -19   29.50   12.50
  -1  -7  19  243.18   22.80
  -1  -7  19  252.27   30.80
   1  -7 -19  256.07   24.50
  -1   7 -19  329.87   51.59
   1  -7 -19  151.98   29.00
  -1  -7 -19  329.37   40.50
  -1  -7 -19  314.97   32.20
  -1  -7 -19  239.48   26.50
   1  -7  19  257.77   29.30
   1  -7  19  236.68   23.60
   1   7 -19  209.88   47.50
  -1  -8  19   -3.30   13.50
   1  -8 -19  -47.50   19.40
  -1  -8  19    4.00    8.10
   1  -8 -19   -0.30   11.50
  -1   8 -19   -6.70   35.10
  -1  -8 -19    5.60   11.40
  -1  -8 -19  -30.60   27.20
   1  -8  19  -15.00   13.40
   1   8 -19  -60.49   34.90
  -1  -8 -19   -7.90   18.10
   1  -8  19    6.80    9.20
   1  -9 -19    0.90   25.20
  -1  -9  19  104.39   23.80
  -1   9 -19   51.29   44.40
  -1  -9  19   97.79   17.50
   1  -9 -19   88.59   15.90
  -1  -9 -19   34.00   32.40
   1   9 -19  -32.00   38.00
  -1  -9 -19   88.49   17.20
   1  -9  19  117.89   15.50
   1  -9  19   77.89   19.40
  -2   0  19    4.90   10.50
  -2   0 -19    2.70    6.20
  -2   0 -19   22.30   11.20
  -2   0 -19  -12.10    8.00
   2   0 -19  -19.80    7.50
   2   0 -19  -14.50    7.70
   2   0 -19  -18.40    8.60
   2   0  19    1.70    7.40
  -2   0 -19   -7.50    5.30
   2   1  19    4.00    6.30
  -2   1 -19   -5.40    8.50
   2  -1 -19    4.50    6.30
   2  -1 -19  -12.90    8.70
  -2  -1  19    9.30   10.10
  -2   1 -19    0.60    7.60
   2  -1 -19  -24.30    8.90
  -2  -1 -19    5.70   10.10
  -2  -1 -19   14.30   10.20
  -2  -1 -19    1.40    6.50
   2   1 -19    9.90    7.80
   2   1 -19    7.50    9.40
   2  -1  19   22.20    7.60
  -2   1  19    4.40   12.00
   2   1 -19   -5.90    9.90
  -2   2 -19    6.10    8.50
  -2   2 -19   39.00   13.50
  -2  -2  19    8.70   10.10
   2  -2 -19    0.30   10.50
   2  -2 -19   -5.20   10.50
  -2   2  19    0.60   12.80
   2   2 -19   27.00   15.00
  -2  -2 -19   16.40    8.00
   2  -2  19   23.00    7.70
   2  -2  19   31.60    8.20
  -2  -2 -19   35.50   10.30
   2   2 -19   30.50    7.10
   2   2 -19   26.80    9.60
  -2  -2 -19   18.50   12.20
   2  -3 -19   -6.40    5.80
  -2  -3  19    1.20   11.70
   2  -3 -19  -17.90   11.30
  -2   3 -19    0.30    7.40
   2  -3 -19  -29.60    9.40
  -2   3 -19    3.50   12.10
   2   3 -19  -14.50   13.30
   2   3 -19   12.00    7.90
   2  -3  19   -4.20    7.00
  -2   3  19  -20.50   11.40
  -2  -3 -19   -6.60    8.30
  -2  -3 -19    5.40   12.60
   2  -3  19    4.70    7.60
   2   3 -19    1.30    3.80
  -2  -3 -19   -1.60    8.30
  -2  -4  19   13.20   12.70
  -2   4 -19    6.80    9.40
   2  -4 -19    9.30    6.60
   2  -4 -19  -14.10   13.00
  -2  -4  19    3.80    5.10
   2  -4 -19  -25.50   10.00
  -2   4 -19   35.30   18.20
  -2   4 -19   20.10   16.70
   2   4 -19   14.60    8.40
   2   4 -19  -22.90   15.80
  -2  -4 -19    2.00    9.20
  -2  -4 -19   25.70    9.10
   2  -4  19   17.50    7.60
  -2  -4 -19   23.20   13.90
  -2   4  19    7.40   14.60
   2  -4  19   11.20    8.70
  -2   5 -19   45.70   24.50
  -2  -5  19   15.70    5.70
  -2   5 -19    4.00   10.80
   2  -5 -19    8.80    7.60
  -2   5 -19    6.20   17.90
   2  -5 -19  -36.30   11.90
   2  -5 -19  -30.30   14.00
  -2  -5  19   16.40   12.40
   2   5 -19    9.70    7.60
  -2  -5 -19   13.00   19.20
   2  -5  19   18.30    8.10
  -2  -5 -19   -0.50    9.40
   2   5 -19  -15.90   20.10
  -2  -5 -19    8.00    8.00
   2  -5  19    0.40    8.50
  -2   6 -19   84.39   30.50
   2  -6 -19   38.00    9.10
  -2   6 -19   28.90   20.60
  -2  -6  19   24.80   13.80
  -2  -6  19   34.40    7.40
   2  -6 -19   -3.70   11.70
   2  -6  19   43.70   10.00
   2   6 -19  -13.70   24.30
   2  -6  19   37.20   11.90
  -2  -6 -19    5.40   10.60
  -2  -6 -19   53.89   22.90
   2  -7 -19   11.40    9.90
  -2   7 -19   27.80   31.00
  -2  -7  19    6.60   13.70
  -2   7 -19  -34.80   23.20
  -2  -7  19   -2.10    6.50
   2  -7 -19  -47.30   16.30
   2  -7 -19  -14.20   10.50
  -2  -7 -19   -2.00   13.30
  -2  -7 -19  -13.20   11.60
  -2  -7 -19   -0.10   26.80
   2  -7  19    3.00   12.00
   2   7 -19  -39.70   25.70
   2  -7  19  -12.00    7.40
   2  -8 -19  -36.80   21.70
   2  -8 -19   25.20   12.00
  -2  -8  19   20.00    8.90
  -2  -8  19   27.20   17.90
  -2   8 -19   58.29   38.80
  -2  -8 -19   17.20   16.20
  -2  -8 -19   13.50   33.00
   2  -8  19   26.70   14.60
  -2  -8 -19    9.30   12.30
   2  -8  19   21.90   10.50
   2   8 -19  -69.19   32.70
  -2   9 -19   19.30   42.20
   2  -9 -19    9.60   12.50
  -2  -9  19   -5.50   19.00
   2  -9 -19  -58.29   21.30
   2  -9  19    1.80   16.40
  -2  -9 -19  -52.29   34.10
  -2  -9 -19   13.30   13.20
   2  -9  19    5.60   11.70
  -3   0  19   -1.20   11.30
   3   0 -19   -0.30    8.40
   3   0 -19    3.30    8.60
   3   0 -19  -12.00    8.60
  -3   0 -19   -2.70    7.80
  -3   0 -19  -10.90    9.00
   3  -1 -19  844.82   74.59
  -3  -1  19  906.31   77.09
  -3   1 -19  867.81   74.09
   3  -1 -19  796.92   74.29
  -3   1 -19  738.23   74.29
   3   1 -19  930.91   74.69
  -3  -1 -19  963.30   71.59
  -3  -1 -19  925.11   74.59
   3   1 -19 1014.30   73.29
   3   1 -19  840.62   70.79
  -3  -1 -19  850.61   73.39
  -3   2 -19  -22.80   10.10
  -3   2 -19    0.00    7.60
   3  -2 -19    2.30    7.40
  -3  -2  19  -14.10    9.10
   3  -2 -19   -3.70    4.60
   3  -2 -19  -11.20   11.20
   3   2 -19   -1.20    5.00
   3  -2  19    0.90    5.60
   3   2 -19   12.80    8.00
  -3  -2 -19   -2.40    8.70
   3   2 -19  -21.70   12.00
   3  -2  19   -8.80    6.90
  -3  -2 -19    2.60   12.00
  -3  -2 -19   -2.50    8.60
  -3   2  19  -20.50   14.20
   3   2 -19    4.10    6.30
   3  -3 -19  288.47   29.00
  -3  -3  19  226.68   29.70
  -3   3 -19  170.48   30.10
   3  -3 -19  288.07   23.40
   3  -3 -19  201.28   29.10
   3   3 -19  222.18   36.40
   3   3 -19  291.87   26.30
  -3  -3 -19  287.97   28.30
  -3  -3 -19  293.07   25.70
  -3  -3 -19  207.38   30.80
   3  -3  19  307.27   25.20
   3  -3  19  302.97   25.40
  -3   4 -19   23.30   16.50
  -3  -4  19   40.70    6.50
   3  -4 -19   31.30   12.70
   3  -4 -19   52.89    8.40
   3  -4 -19   -3.60   14.30
  -3   4 -19   12.00    8.40
  -3  -4  19   47.10   15.60
  -3  -4 -19   29.20   17.60
  -3   4  19   17.10   16.10
   3  -4  19   47.20   10.20
   3  -4  19   47.40    9.90
  -3  -4 -19   42.40   10.50
   3   4 -19   -1.20   18.40
  -3  -4 -19   39.70   12.70
   3   4 -19   49.50   10.00
   3  -5 -19  605.14   54.89
   3  -5 -19  615.94   50.99
  -3  -5  19  647.04   57.79
  -3  -5  19  603.94   49.90
  -3   5 -19  753.12   60.99
  -3   5 -19  593.84   53.49
   3  -5  19  584.84   51.09
  -3  -5 -19  670.33   61.59
  -3  -5 -19  487.35   54.29
  -3  -5 -19  656.13   51.89
   3  -5  19  606.34   52.49
  -3   6 -19  -10.20   21.60
  -3   6 -19   46.80   27.90
  -3  -6  19    4.90    7.10
   3  -6 -19   14.00    8.50
   3  -6 -19    4.10   11.60
  -3  -6  19    2.00   13.70
   3  -6 -19  -24.40   16.20
   3  -6  19    3.30    9.10
   3  -6  19    0.80    9.90
  -3  -6 -19    6.90   11.20
  -3  -6 -19   -2.80   12.20
   3   6 -19  -57.69   24.80
  -3  -6 -19   13.70   21.80
   3  -7 -19  120.79   19.10
  -3  -7  19  125.39   24.70
   3  -7 -19   55.89   26.20
  -3   7 -19  137.49   34.10
  -3   7 -19  179.18   44.30
   3  -7 -19  133.19   16.60
  -3  -7 -19   69.09   17.30
   3  -7  19  123.89   19.40
   3  -7  19  126.09   15.80
  -3  -7 -19  127.69   20.10
  -3  -7 -19  171.88   36.70
  -3   8 -19  -28.60   25.80
   3  -8 -19   17.30   11.10
  -3   8 -19   39.90   35.80
  -3  -8  19   17.90   17.70
   3  -8 -19  -34.70   19.10
  -3  -8 -19    2.70   14.70
  -3  -8 -19   11.40   30.40
   3  -8  19    2.30   13.50
   3  -8  19    9.20   10.90
  -3  -8 -19   37.30   15.70
  -4   0  19   13.60   14.10
  -4   0 -19   17.30   11.50
   4   0 -19   22.50    9.90
   4   0 -19   15.60    8.90
   4   0 -19    6.30    2.90
   4   0 -19    2.40   10.40
  -4   0 -19   16.50    8.80
  -4   1 -19   15.90    8.90
   4  -1 -19   28.50   11.00
   4  -1 -19   24.80   10.20
   4  -1 -19   23.60    4.60
  -4   1 -19   31.00   14.10
  -4  -1  19   13.90   13.30
  -4  -1 -19   18.10   11.00
   4   1 -19    3.80   12.00
   4   1 -19   29.40    9.50
  -4  -1 -19   24.70    8.20
  -4   1  19   29.00   17.40
   4   1 -19   25.30    9.60
  -4   2 -19   10.10    8.30
   4  -2 -19   10.40   12.30
   4  -2 -19   10.30    4.40
  -4  -2  19  -10.70   12.50
   4  -2 -19   14.00    9.70
  -4   2 -19   -4.00   11.80
  -4  -2 -19   11.00    9.40
   4  -2  19    4.80    4.10
  -4   2  19   -6.90   14.80
   4   2 -19   15.10    8.50
  -4  -2 -19   20.90   10.10
   4   2 -19   11.30    7.80
   4   2 -19  -13.80   12.50
  -4  -3  19   -3.00   12.40
   4  -3 -19   46.10   11.80
   4  -3 -19   36.90    6.30
  -4   3 -19   25.40   10.10
  -4   3 -19    9.60   12.70
   4  -3 -19   29.90   13.60
  -4  -3 -19   32.10   10.50
   4   3 -19   -3.00   14.70
  -4  -3 -19   17.30   10.60
   4  -3  19   29.10   10.50
  -4  -3 -19   39.20   19.80
   4  -3  19   32.40    7.70
   4  -4 -19   19.00    6.40
  -4  -4  19    8.50   13.90
  -4   4 -19    8.40    8.00
   4  -4 -19   17.00   10.20
   4  -4 -19   22.30   14.50
  -4   4 -19   -5.30   12.50
   4  -4  19   19.10    7.80
   4  -4  19   19.90    9.70
  -4  -4 -19   19.60   11.50
  -4   4  19   -9.20   15.20
  -4  -4 -19   10.00   17.10
  -4  -4 -19   28.30    9.70
   4   4 -19  -14.30   19.90
  -4   5 -19    5.00    6.50
  -4   5 -19   -5.70   16.90
   4  -5 -19  -13.30   15.90
  -4  -5  19   -1.10   14.10
   4  -5 -19    9.30    7.20
   4  -5 -19    6.40   11.10
  -4  -5 -19   -2.30   11.10
  -4  -5 -19    7.10    9.50
  -4  -5 -19   -1.00   18.70
  -4   5  19    5.10   18.00
   4   5 -19  -39.50   18.60
   4  -5  19    1.50    8.30
   4  -5  19    2.30    8.30
   4  -6 -19    3.00   16.50
  -4   6 -19   34.40   23.50
   4  -6 -19   23.30    8.70
   4  -6 -19   22.70   11.70
  -4  -6  19   19.30   15.90
  -4  -6 -19   17.30   13.20
   4  -6  19   13.40   10.10
   4   6 -19  -38.20   22.10
  -4  -6 -19   27.70   10.40
  -4  -6 -19   29.00   23.20
   4  -6  19   13.40   10.10
   4  -7 -19    6.80    9.60
  -4  -7  19    2.90   16.40
  -4   7 -19    9.90   24.60
   4  -7 -19   -8.10   17.20
   4  -7 -19    4.20   10.70
  -4   7 -19   71.69   33.70
   4  -7  19    3.40   12.20
  -4  -7 -19   36.30   16.20
  -4  -7 -19  -11.60   12.80
   4  -7  19    6.20   10.50
  -4  -7 -19    4.70   26.90
  -4   8 -19  -11.40   29.50
   4  -8 -19    6.60   21.10
  -4   8 -19   60.09   41.40
  -4  -8  19   26.60   22.30
   4  -8 -19   24.60   11.80
   4  -8  19   20.60   12.50
  -4  -8 -19   12.70   15.00
  -4  -8 -19   36.20   12.90
   4  -8  19   26.70   15.10
  -4  -8 -19   20.80   37.50
  -5   0  19    9.70   15.40
  -5   0 -19   -3.10    8.20
  -5   0 -19   -0.40   11.70
   5   0 -19    7.80    8.90
   5   0 -19    2.30    8.50
   5  -1 -19  286.97   27.90
  -5   1 -19  293.17   30.30
   5  -1 -19  277.57   29.20
  -5   1 -19  266.77   26.90
  -5  -1  19  322.07   37.00
   5   1 -19  301.57   27.50
   5   1 -19  252.57   26.30
  -5  -1 -19  263.37   27.20
   5   1 -19  210.28   32.80
  -5  -1 -19  269.67   27.50
  -5   1  19  301.77   37.60
   5  -2 -19   10.00    9.20
  -5  -2  19   -9.50   15.10
   5  -2 -19    2.00    4.00
  -5   2 -19   -5.10   12.60
   5  -2 -19   11.10   11.70
  -5   2 -19    2.40    7.80
  -5   2  19  -22.70   17.80
  -5  -2 -19    6.50   10.60
  -5  -2 -19    2.70    7.10
   5   2 -19  -10.80   14.60
   5   2 -19   10.20    9.20
   5  -3 -19  511.75   44.60
  -5   3 -19  454.15   50.69
   5  -3 -19  562.34   49.00
   5  -3 -19  604.44   52.19
  -5   3 -19  597.54   48.60
   5  -3  19  559.64   48.00
  -5  -3 -19  548.75   47.90
  -5  -3 -19  543.75   49.00
   5  -4 -19   24.30   15.40
  -5   4 -19   -2.10   12.80
   5  -4 -19   26.80   11.10
   5  -4 -19   17.10    6.50
  -5   4 -19   18.70   10.10
  -5  -4  19    3.50   16.60
   5   4 -19  -22.10   19.90
   5  -4  19   30.80   11.20
  -5  -4 -19   13.10   20.30
  -5   4  19  -13.70   19.60
  -5  -4 -19   12.50   10.60
  -5  -4 -19   15.10   11.10
  -5   5 -19   66.39   13.30
   5  -5 -19   80.59   14.60
  -5   5 -19   55.79   18.90
   5  -5 -19   55.49   19.30
   5  -5 -19   86.99   11.10
  -5  -5  19   49.30   20.10
  -5   5  19   77.39   24.80
   5   5 -19   16.60   27.40
  -5  -5 -19   49.99   24.10
   5  -5  19   84.89   14.60
  -5  -5 -19   83.79   15.10
  -5  -5 -19   62.19   15.80
  -5   6 -19    9.50   21.50
   5  -6 -19   12.10   17.70
   5  -6 -19   12.90    8.50
   5  -6 -19    4.90    9.80
  -5  -6  19   -4.20   16.80
  -5  -6 -19  -10.10   22.10
   5   6 -19  -44.80   26.70
  -5  -6 -19   15.30   11.10
   5  -6  19   11.40   10.20
  -5  -6 -19   12.60   12.90
   5  -7 -19  174.88   19.30
   5  -7 -19  126.99   28.40
  -5   7 -19  246.08   37.50
  -5  -7  19  178.78   31.00
   5   7 -19   43.50   40.90
  -5  -7 -19  253.37   43.10
  -5  -7 -19  156.18   25.00
   5  -7  19  212.48   23.10
   5  -8 -19    8.40   19.90
   5  -8 -19    2.20   11.00
   5  -8  19    9.70   11.30
  -5  -8 -19  -11.70   31.60
  -5  -8 -19   -6.30   12.20
  -6   0 -19   16.40    9.70
  -6   0 -19   25.80   12.80
  -6   0  19   32.40   19.50
   6   0 -19    8.60   12.00
   6  -1 -19   39.30   15.00
  -6   1 -19   39.90   16.50
  -6   1 -19   22.30   10.00
  -6  -1  19   22.40   19.30
  -6  -1 -19   20.50   10.50
   6   1 -19   31.80   12.50
  -6   1  19   -2.20   18.40
  -6  -1 -19   23.30   13.80
  -6   2 -19    5.20    8.70
   6  -2 -19   19.30   14.50
  -6  -2  19   11.30   16.50
  -6   2 -19   12.80   14.10
  -6  -2 -19    9.30   12.30
   6   2 -19   18.10   11.70
  -6   2  19  -23.20   17.50
  -6  -2 -19    4.10   10.10
   6   2 -19   -2.80   18.50
  -6  -3  19   -0.90   15.20
  -6   3 -19    2.10    8.40
  -6   3 -19   10.30   17.80
   6  -3 -19    9.00   15.60
   6   3 -19  -16.70   19.20
   6  -3  19   -3.70   11.00
  -6  -3 -19   -9.30    9.80
  -6  -3 -19    1.50   10.60
   6  -4 -19    7.70   15.00
  -6   4 -19   -0.30   17.30
  -6   4 -19    1.60    9.70
  -6  -4  19  -11.30   13.70
   6   4 -19   -5.30   19.40
   6  -4  19    3.50   10.10
  -6  -4 -19   11.20   11.80
  -6   4  19  -25.30   18.00
  -6  -4 -19   24.90   12.80
   6  -5 -19   11.00   16.30
  -6  -5  19   -3.70   17.00
  -6   5 -19   -4.10   15.40
   6   5 -19  -34.20   23.10
   6  -5  19   13.70   10.60
  -6   5  19   10.40   20.30
  -6  -5 -19    7.30   13.50
  -6  -5 -19   19.10   12.80
  -6  -5 -19   15.80   23.60
   6  -6 -19   13.10   18.10
   6  -6 -19   20.60   10.90
  -6  -6  19    7.10   19.30
  -6   6 -19   35.20   21.00
   6   6 -19  -18.30   25.40
  -6  -6 -19   26.70   13.70
   6  -6  19   22.60   11.40
  -6  -6 -19   20.60   24.80
  -6  -6 -19   28.50   14.00
   6  -7 -19    4.30   10.10
   6  -7 -19   -0.40   21.40
  -6  -7  19    2.70   20.50
  -6   7 -19   10.30   24.80
  -6  -7 -19   13.70   17.10
   6   7 -19  -37.80   33.10
  -6  -7 -19   19.70   29.00
   6  -7  19   -5.30   13.00
  -7   0 -19    9.60   10.40
  -7   0  19   -0.30   20.30
   7   0 -19   11.00   13.60
  -7   0 -19    9.10   13.50
   7  -1 -19  169.88   24.00
  -7  -1  19  199.48   34.20
  -7   1 -19  157.88   21.50
  -7   1 -19  229.88   28.10
  -7   1  19  166.78   33.70
   7   1 -19  208.78   24.80
  -7  -1 -19  183.28   22.90
  -7  -1 -19  169.18   23.30
   7  -2 -19    7.10   14.40
  -7  -2  19   26.30   21.80
  -7   2 -19   21.10   16.20
  -7   2 -19   14.40   10.50
  -7  -2 -19   14.70   12.00
  -7  -2 -19   17.20   13.10
  -7   2  19  -33.60   22.90
   7  -3 -19   88.49   20.80
  -7   3 -19   59.69   22.40
  -7   3 -19   78.09   14.30
  -7  -3  19   74.39   24.70
  -7  -3 -19   66.69   16.30
  -7  -3 -19   98.79   18.50
   7   3 -19   46.60   27.90
  -7   4 -19    5.70   17.00
  -7  -4  19  -10.70   15.70
   7  -4 -19    0.80   16.30
  -7   4 -19    6.50   10.80
  -7  -4 -19   14.30   13.00
  -7   4  19  -27.50   19.70
  -7  -4 -19   12.10   14.50
   7   4 -19  -36.70   22.30
   7  -4  19   10.60   13.80
   7  -5 -19  154.58   27.40
  -7  -5  19   75.89   25.40
  -7   5 -19   93.69   24.80
  -7  -5 -19  143.39   22.30
   7  -5  19  184.28   21.30
   7   5 -19   93.69   34.10
  -7   5  19  126.69   31.20
  -7  -5 -19  214.88   26.00
  -7  -5 -19  169.08   35.60
  -7  -6  19   11.30   20.60
  -7   6 -19   29.30   20.90
   7  -6 -19   18.30   20.50
   7   6 -19  -37.30   30.20
   7  -6  19   23.40   12.70
  -7  -6 -19   43.40   30.80
  -7  -6 -19   31.50   15.10
  -7  -6 -19   18.90   16.00
  -8   0 -19   -0.40   11.40
  -8   0 -19   -1.40   14.50
  -8   0  19  -16.20   23.20
   8   0 -19    0.60   15.60
  -8   1 -19    0.70   11.60
  -8   1 -19    6.40   18.30
  -8  -1  19    0.00   23.70
   8  -1 -19   24.40   17.30
   8   1 -19   16.60   15.50
  -8   1  19  -31.80   22.40
  -8  -1 -19    3.50   14.50
  -8  -1 -19    3.70   12.40
   8  -2 -19    6.30   15.50
  -8  -2  19   15.00   27.00
  -8   2 -19   16.40   19.70
  -8   2 -19    1.90   11.10
  -8  -2 -19   16.00   13.30
  -8   2  19  -48.80   21.20
  -8  -2 -19   21.70   16.70
  -8   3 -19    5.40   10.80
  -8   3 -19   32.10   21.90
  -8  -3  19    8.60   25.60
   8  -3 -19    6.80   16.70
  -8  -3 -19    1.90   16.10
  -8  -3 -19   -3.40   12.70
  -8  -4  19    2.50   21.00
  -8   4 -19    5.20   10.70
   8  -4 -19   10.90   18.30
  -8   4 -19   28.90   24.50
  -8   4  19  -11.00   26.20
  -8  -4 -19   30.90   17.40
  -8  -4 -19   12.50   14.40
   8  -4  19   28.00   15.10
   8  -5 -19   -6.90   21.10
  -8  -5  19   24.00   23.50
  -8   5 -19   13.70   19.50
   8  -5  19   33.70   14.10
   8   5 -19  -41.20   29.20
  -8   5  19  -16.30   26.20
  -8  -5 -19   -0.30   16.70
  -9   0 -19    0.40   13.60
  -9   0 -19   10.40   20.50
  -9   0  19  -48.50   25.20
   9   0 -19   20.50   18.50
  -9   0  19  -13.60   16.10
   9  -1 -19   75.09   20.70
  -9   1 -19   64.89   17.10
  -9  -1  19   57.39   33.80
  -9   1 -19   68.09   21.20
  -9  -1 -19   81.99   20.20
  -9   1  19  -14.30   32.40
  -9   1  19   78.09   21.60
  -9  -1 -19   49.00   17.00
  -9   2 -19    2.30   12.70
  -9   2 -19   24.20   22.20
  -9  -2  19   -6.30   26.20
   9  -2 -19    6.10   17.30
  -9  -2 -19    2.50   14.20
  -9  -2 -19   18.40   19.10
   9  -3 -19   44.30   20.80
  -9   3 -19   83.89   27.30
  -9  -3  19   51.09   32.90
  -9  -3 -19   71.29   21.40
  -9   3  19  -20.40   27.60
   0   0  20 1913.91  163.28
   0   0 -20 2028.70  163.38
   0   0 -20 2013.40  164.28
   0   0 -20 2061.09  163.18
   0   0 -20 2037.70  163.78
   0  -1 -20   -2.20    9.50
   0  -1 -20    7.50    7.30
   0   1 -20   -2.40    7.60
   0  -1 -20    2.90    9.90
   0  -1 -20    6.40   10.50
   0  -1  20  -11.90    7.60
   0   1 -20   14.00   12.10
   0   1  20  -10.60    9.90
   0   1 -20    6.00   10.50
   0   1 -20    3.40   11.50
   0  -2 -20  351.06   34.70
   0   2 -20  342.77   31.40
   0   2 -20  331.67   34.60
   0  -2 -20  341.67   29.80
   0   2 -20  397.16   39.30
   0   2 -20  334.87   36.30
   0  -2 -20  352.76   32.70
   0  -2 -20  309.47   34.30
   0   3 -20  -13.70    6.20
   0   3  20   -5.80   10.00
   0  -3  20   -4.60    6.10
   0  -3  20   -9.30    8.10
   0  -3 -20   -6.80   11.00
   0  -3 -20    3.60    8.70
   0  -3 -20   -7.40   10.50
   0   3 -20  -14.60    8.90
   0   3 -20    5.80   15.60
   0   3 -20   -4.40   14.00
   0  -4 -20  519.45   48.10
   0  -4 -20  496.75   46.20
   0  -4  20  433.06   43.40
   0   4 -20  409.86   47.30
   0  -4  20  434.66   40.40
   0   4 -20  606.14   55.59
   0  -4 -20  524.45   42.10
   0   5 -20    7.70   22.60
   0   5 -20   -8.00    8.30
   0  -5 -20  -15.40    9.80
   0  -5 -20    0.00   12.80
   0  -5 -20   -9.50   15.50
   0  -5  20    0.50    9.80
   0  -5  20    0.10    6.50
   0  -6 -20  389.56   44.30
   0   6 -20  459.85   59.09
   0  -6  20  371.96   38.20
   0  -6  20  345.97   32.90
   0  -6 -20  461.15   42.60
   0  -6 -20  350.16   35.20
   0  -7  20    4.30    7.80
   0  -7 -20  -11.70   13.90
   0  -7  20    2.00   13.30
   0  -7 -20   -6.10   10.10
   0   7 -20  -31.20   29.60
   0  -7 -20  -20.10   20.20
   0   8 -20   30.80   37.80
   0  -8 -20   -8.90   24.00
   0  -8  20   41.50   16.20
   0  -8 -20   28.90   19.70
   0  -8  20   58.19   11.30
   0  -8 -20   65.29   14.30
   0   9 -20  -78.69   34.50
   0  -9 -20  -71.59   27.70
   0  -9 -20   15.50   14.50
   0  -9  20   -2.70   17.20
   0  -9  20    3.00   10.20
   1   0 -20   -6.90    8.60
  -1   0 -20    3.60    8.90
   1   0 -20  -14.40    9.40
  -1   0 -20    6.40   10.30
   1   0 -20   -3.20    8.00
   1   0 -20    1.40   10.80
  -1   0 -20   -8.30    8.70
  -1   0  20    2.90   10.50
   1   0  20   -1.50    8.10
  -1   1 -20   15.50    9.20
   1  -1 -20   17.60   12.00
   1  -1 -20    3.70   10.80
   1   1  20   -8.90    9.10
  -1  -1  20   17.00   10.50
   1  -1 -20   15.70   12.00
  -1   1 -20   20.10   12.30
  -1   1 -20   11.10    9.20
   1  -1 -20    3.70    7.00
   1   1 -20   -8.10   11.60
   1   1 -20   16.50   12.30
   1  -1  20   10.00    7.70
   1   1 -20    3.80   10.40
  -1  -1 -20    4.00    9.40
  -1  -1 -20   14.50    9.70
  -1  -1 -20    7.10    7.30
   1   1 -20   -1.80    8.40
  -1   1  20   11.80   11.60
  -1  -2  20   -2.70    9.50
  -1   2 -20   19.20   10.20
   1  -2 -20   26.80   14.70
  -1   2 -20   55.89   16.40
  -1   2 -20   31.20   13.30
  -1   2 -20   15.60    8.20
   1  -2 -20   21.50   13.00
   1  -2 -20    8.50   10.40
   1   2  20    3.20    8.50
  -1  -2 -20   17.10   12.60
  -1  -2 -20    0.50    7.90
   1  -2  20    9.30    8.70
   1   2 -20   -3.40   14.10
  -1  -2 -20    3.00    9.40
  -1   2  20    1.20   12.10
   1   2 -20   24.80   16.80
  -1  -3  20   10.80   11.70
   1  -3 -20   19.70   14.10
  -1   3 -20   20.10   10.70
  -1   3 -20   37.80   15.10
  -1   3 -20   19.00    7.40
  -1   3 -20   44.60   19.80
  -1  -3  20   15.80    6.60
   1  -3 -20   16.00   12.90
   1  -3  20   19.30    9.30
  -1  -3 -20    1.00    7.60
   1  -3  20   27.20    7.90
  -1   3  20  -20.00   10.20
   1   3 -20   32.00   18.40
   1   3 -20    9.80    4.60
  -1  -3 -20    3.90    9.70
   1   3 -20  -10.10    8.60
  -1  -3 -20   23.80   13.10
   1  -4 -20    2.90   12.70
   1  -4 -20  -13.90   12.90
  -1   4 -20   -5.70    9.50
  -1   4 -20    4.40   15.10
  -1  -4  20   -5.80    9.80
  -1  -4  20    6.70    5.80
  -1   4 -20    5.00    5.80
  -1   4 -20   13.00   18.80
   1   4 -20    0.90    8.20
  -1  -4 -20  -10.10    9.80
  -1   4  20   -2.40   11.40
   1   4 -20   -0.70   19.30
  -1  -4 -20   -2.80   13.60
   1  -4  20    0.40    6.70
   1  -4  20   -0.20    9.30
  -1  -4 -20   -0.90    6.70
  -1   5 -20   22.50   18.60
  -1   5 -20   53.29   27.10
   1  -5 -20    8.50   13.10
   1  -5 -20    6.70    8.30
  -1  -5  20   19.90   11.90
   1  -5 -20   -2.20   17.90
  -1  -5  20   20.60    6.60
  -1  -5 -20   11.10   11.90
  -1  -5 -20   17.30    7.10
   1   5 -20   11.30   25.70
   1   5 -20   21.70    9.00
   1  -5  20   20.50    7.90
   1  -5  20   10.00   10.40
  -1  -5 -20   42.60   19.30
  -1   6 -20  -48.10   18.20
   1  -6 -20    4.50    9.80
  -1   6 -20   29.90   27.60
  -1  -6  20    1.30    6.20
   1  -6 -20  -20.70   15.80
  -1  -6  20    2.70   13.10
   1  -6 -20  -10.50   13.00
   1   6 -20   10.30    7.50
   1   6 -20  -20.80   25.10
  -1  -6 -20   -3.00   14.40
   1  -6  20   -2.60   11.00
  -1  -6 -20  -28.40   10.90
  -1  -6 -20    6.70   19.10
   1  -6  20    5.40    8.00
  -1  -7  20   22.20    8.30
   1  -7 -20  -12.60   13.50
   1  -7 -20   34.50   12.00
   1  -7 -20  -26.40   18.90
  -1  -7  20   30.90   14.30
  -1   7 -20   44.00   33.30
   1   7 -20    0.50   34.30
   1  -7  20   27.70    9.70
  -1  -7 -20   15.40   15.70
  -1  -7 -20   36.00   24.20
  -1  -7 -20   27.00   12.50
   1  -7  20   26.00   13.90
  -1  -8  20   12.90    8.70
  -1   8 -20  -22.80   39.40
  -1  -8  20    0.60   14.10
   1  -8 -20   -0.70   10.70
   1  -8  20   12.30   15.00
   1  -8  20    3.30    9.40
  -1  -8 -20   11.10   14.00
   1   8 -20  -29.90   32.10
  -1  -8 -20  -15.70   15.40
  -1  -8 -20  -23.60   24.30
  -1   9 -20    2.10   40.70
  -1  -9  20   15.60   17.10
  -1  -9  20   30.80   11.50
   1  -9 -20   36.50   15.00
  -1  -9 -20  -24.70   32.30
  -1  -9 -20   41.00   16.90
   1   9 -20  -65.19   34.60
   1  -9  20   27.50   11.80
   1  -9  20   21.00   17.50
  -2   0 -20  132.99   17.10
   2   0 -20   98.39   16.10
  -2   0 -20  124.69   18.80
   2   0 -20  101.99   18.40
   2  -1 -20   -9.40    9.40
  -2   1 -20   -6.60   10.40
   2   1  20  -11.90    6.00
  -2   1 -20    1.50    8.00
   2  -1 -20    7.70    7.20
  -2  -1  20   16.60   12.10
  -2   1 -20   30.90   11.40
   2  -1 -20  -14.20   10.40
  -2  -1 -20    3.30    8.70
  -2   1  20   47.10   15.10
  -2  -1 -20   15.90   11.10
   2   1 -20   -6.60    9.30
   2  -1  20   29.80    8.50
   2   1 -20   10.00   11.40
   2   1 -20    9.40    8.20
  -2  -1 -20    7.50   10.50
   2  -2 -20  501.25   54.39
  -2   2 -20  634.14   54.79
   2  -2 -20  501.15   53.89
   2  -2  20  622.24   51.89
  -2  -2 -20  711.73   52.99
  -2  -2 -20  564.44   54.89
  -2   2  20  730.53   58.39
  -2  -2 -20  493.45   52.79
   2   2 -20  683.53   53.89
   2  -3 -20   -0.50    7.00
   2  -3 -20  -22.30   13.40
  -2   3 -20    5.10    8.40
   2  -3 -20  -22.40   11.10
  -2  -3  20    4.50   11.30
  -2   3 -20   18.80   15.20
   2  -3  20   24.60    9.00
  -2  -3 -20   18.50   10.10
  -2   3  20  -36.50   13.50
   2   3 -20   14.80    9.40
  -2  -3 -20    3.30    9.70
   2  -3  20   24.70    8.70
   2   3 -20   13.60    4.70
   2   3 -20    0.40   17.40
  -2  -3 -20   23.60   14.50
  -2   4 -20  411.16   42.40
  -2  -4  20  302.97   33.30
  -2   4 -20  374.56   35.70
   2  -4 -20  293.77   27.90
  -2  -4  20  335.47   27.20
  -2   4 -20  338.77   31.30
  -2  -4 -20  308.07   29.80
   2  -4  20  305.77   30.70
  -2   4  20  206.48   34.20
   2  -4  20  318.67   28.30
   2   4 -20  281.37   40.50
   2   4 -20  288.17   29.50
  -2  -4 -20  381.06   38.20
  -2   5 -20   11.90   20.30
   2  -5 -20  -26.50   11.40
  -2   5 -20   24.60   22.70
   2  -5 -20  -29.20   14.90
   2  -5 -20    1.70    7.90
  -2  -5  20   13.90    5.90
  -2   5 -20  -15.70   10.70
  -2  -5  20    8.70   14.00
   2  -5  20    6.80    8.50
   2   5 -20    9.90    7.40
  -2  -5 -20    7.50    9.10
  -2  -5 -20  -14.60   10.40
  -2  -5 -20   16.00   17.50
   2  -5  20    4.10    9.60
   2   5 -20  -23.80   23.70
  -2  -6  20  150.98   23.50
  -2   6 -20  182.58   32.50
  -2   6 -20  241.48   42.40
  -2  -6  20  150.48   15.50
   2  -6 -20  154.68   17.90
   2  -6  20  154.48   17.40
  -2  -6 -20  215.18   33.90
   2   6 -20  133.99   39.90
   2  -6  20  170.38   21.60
  -2  -6 -20  101.09   20.90
  -2  -7  20    3.20   16.10
   2  -7 -20  -52.29   17.50
   2  -7 -20  -18.00   13.80
  -2   7 -20  -27.50   21.80
   2  -7 -20    3.70   10.30
  -2   7 -20   78.59   34.40
  -2  -7  20   13.10    7.40
  -2  -7 -20   -7.10   12.40
   2   7 -20  -37.00   27.60
  -2  -7 -20   26.90   26.10
   2  -7  20   -6.10   11.60
   2  -7  20    6.90    8.30
  -2  -7 -20   13.20   15.10
  -2  -8  20  170.18   27.40
  -2   8 -20  287.77   58.59
   2  -8 -20  186.38   22.40
   2  -8  20  146.09   23.70
  -2  -8 -20  217.28   43.20
  -2  -8 -20  203.08   25.60
   2  -8  20  176.48   20.50
  -2  -8 -20  192.48   29.60
   2   8 -20   56.79   46.90
   2  -9 -20    3.80   12.90
  -2  -9 -20  -43.30   30.70
  -2  -9 -20   12.60   15.50
   2  -9  20    9.50   11.70
   3   0 -20   47.90   12.00
   3   0 -20   45.60   12.60
   3   0 -20   28.90   12.50
  -3   0 -20   39.30   14.00
  -3   0 -20   46.00   12.00
  -3   0  20   81.39   18.40
  -3   1 -20  -14.60   11.40
  -3  -1  20   14.80   12.20
   3  -1 -20    4.80   10.30
   3  -1 -20    0.30   11.00
  -3   1 -20   10.40    8.60
  -3  -1 -20   39.40   14.20
   3   1 -20   13.60    8.70
   3  -1  20   12.10    6.90
  -3   1  20   24.60   14.00
  -3  -1 -20   23.50    9.90
   3   1 -20   -9.10   11.40
  -3  -1 -20   12.00    9.80
   3   1 -20   10.80    9.40
   3  -2 -20  -21.60   10.20
   3  -2 -20  -12.00    9.90
   3  -2 -20    0.50    5.10
  -3   2 -20  -11.60   10.20
  -3  -2  20  -16.30    9.80
  -3   2 -20    5.10    8.70
  -3  -2 -20    8.20    8.60
  -3  -2 -20    6.60   13.00
  -3   2  20    3.50   15.00
   3   2 -20  -14.60   13.40
  -3  -2 -20    7.40    9.60
   3   2 -20   11.60    6.90
   3   2 -20   16.70    9.40
   3  -2  20    2.20    5.50
  -3   3 -20   11.60   14.00
   3  -3 -20    0.50   10.90
   3  -3 -20   15.10    6.10
  -3  -3  20    5.20   12.20
  -3   3 -20   -3.30    8.10
   3  -3 -20  -16.60   12.50
  -3  -3 -20   24.00    9.80
  -3  -3 -20   15.90   10.60
   3   3 -20    5.70    8.30
   3  -3  20   13.40    8.20
   3  -3  20   14.30    7.60
  -3  -3 -20    2.50   13.80
   3   3 -20  -20.70   15.70
   3   3 -20   13.70    6.40
   3  -4 -20   12.50   13.70
  -3   4 -20   17.20   14.90
  -3  -4  20   26.80    6.10
   3  -4 -20   18.30    7.10
  -3   4 -20    4.30    8.50
  -3  -4  20   12.80   15.10
   3  -4 -20  -22.30   13.30
   3   4 -20  -14.00   18.00
   3  -4  20   27.40    9.70
   3  -4  20   29.80    9.40
   3   4 -20   35.60   10.50
  -3  -4 -20   18.70   11.90
  -3   4  20  -16.50   15.10
  -3  -4 -20   25.10    9.90
  -3  -4 -20   26.10   17.90
  -3  -5  20   32.70   15.20
   3  -5 -20   17.40   12.50
  -3   5 -20   18.00   17.30
   3  -5 -20   34.70    8.50
  -3   5 -20   35.20   11.70
  -3  -5  20   27.90    6.60
  -3  -5 -20   27.60   10.10
   3   5 -20  -17.90   24.70
  -3  -5 -20   48.90   22.20
   3  -5  20   23.10    9.70
  -3  -5 -20   35.70   13.40
   3  -5  20   29.20    9.10
  -3   5  20   29.10   17.30
   3  -6 -20  -37.30   16.50
   3  -6 -20   11.70    8.70
  -3   6 -20   39.90   30.40
   3  -6 -20    4.10   11.50
  -3  -6  20    5.10   16.30
  -3   6 -20   -1.50   19.40
   3  -6  20    4.60    9.50
  -3  -6 -20   -0.10   10.80
   3   6 -20  -61.49   25.50
   3  -6  20   11.90   11.40
  -3  -6 -20   15.10   22.00
  -3   7 -20   11.10   23.20
  -3   7 -20   42.40   31.40
   3  -7 -20   19.40   10.40
  -3  -7  20   -3.80   15.30
   3  -7 -20  -37.10   18.40
   3  -7 -20    9.60   11.50
   3  -7  20    3.80    9.80
  -3  -7 -20   12.20   12.50
  -3  -7 -20  -17.90   11.30
   3  -7  20    7.20   12.10
  -3  -7 -20    1.70   25.60
   3   7 -20  -70.39   30.70
   3  -8 -20  -41.10   20.50
  -3  -8  20    7.90   19.40
   3  -8 -20   18.80   11.10
  -3   8 -20  -62.49   26.40
  -3   8 -20   32.10   37.20
   3  -8  20   -7.20   14.10
  -3  -8 -20   -0.70   13.30
  -3  -8 -20   21.30   15.90
  -3  -8 -20  -12.50   30.70
   3  -8  20    2.60    9.50
   4   0 -20  355.66   31.80
  -4   0 -20  395.86   37.90
   4   0 -20  410.46   37.00
  -4   0 -20  374.96   36.60
   4   0 -20  419.46   37.60
  -4   0  20  492.45   43.00
  -4  -1  20   82.39   19.10
  -4   1 -20   90.59   18.90
   4  -1 -20   82.89   15.00
  -4   1 -20   74.29   13.80
   4  -1 -20   73.59   16.40
   4  -1 -20   75.29    8.30
   4   1 -20  108.29   14.60
   4   1 -20   81.09   14.40
  -4  -1 -20   94.89   16.20
  -4  -1 -20   66.29   12.60
  -4   1  20  100.99   21.50
   4   1 -20   40.30   16.30
   4  -2 -20  283.17   24.20
  -4   2 -20  225.68   31.60
   4  -2 -20  252.97   30.20
   4  -2 -20  312.47   30.20
  -4   2 -20  281.97   28.40
   4   2 -20  306.97   28.70
  -4  -2 -20  283.77   28.20
  -4   2  20  252.17   34.90
  -4  -2 -20  288.17   29.20
   4   2 -20  323.97   27.50
   4  -3 -20  -10.50   12.70
  -4  -3  20   -7.20   12.30
   4  -3 -20    8.40    5.40
  -4   3 -20    9.90   10.20
   4  -3 -20    8.40   10.70
  -4   3 -20  -21.50   12.50
   4   3 -20  -16.20   14.50
  -4  -3 -20   18.20    9.70
   4   3 -20   12.70    8.80
  -4  -3 -20    3.60   10.30
   4  -3  20   11.60   10.20
   4  -3  20   10.80    7.00
  -4  -3 -20   14.00   17.00
   4  -4 -20  285.27   24.30
  -4   4 -20  215.08   26.60
  -4  -4  20  258.07   32.90
   4  -4 -20  306.67   29.80
   4  -4 -20  220.98   31.50
   4   4 -20  193.48   39.80
   4  -4  20  288.27   25.80
  -4  -4 -20  289.07   29.80
  -4  -4 -20  232.98   37.30
   4  -4  20  326.87   26.60
  -4  -4 -20  279.87   26.50
  -4   5 -20    2.90   16.10
  -4   5 -20    5.80    7.20
   4  -5 -20    5.90    7.30
  -4  -5  20  -10.60   16.50
   4  -5 -20   12.50   11.10
   4  -5 -20  -26.30   15.10
  -4  -5 -20    3.60   12.20
  -4   5  20  -15.90   16.10
   4  -5  20   -2.90    8.30
   4   5 -20  -33.80   20.10
  -4  -5 -20   -1.70   19.00
   4  -5  20   -1.00    8.50
  -4  -5 -20   -5.10    9.80
  -4  -6  20  144.19   26.10
  -4   6 -20  222.08   34.50
   4  -6 -20   86.09   27.80
   4  -6 -20  173.68   16.90
   4  -6 -20  129.09   20.10
  -4  -6 -20  146.29   24.00
   4   6 -20   60.39   33.50
  -4  -6 -20  136.49   18.20
  -4  -6 -20  174.38   34.50
   4  -6  20  146.09   20.50
   4  -6  20  159.68   19.30
   4  -7 -20   22.90   10.40
   4  -7 -20  -12.30   22.20
   4  -7 -20   24.50   13.00
  -4   7 -20   29.60   28.10
  -4   7 -20   78.09   38.10
  -4  -7  20   20.80   18.10
   4  -7  20   21.40   13.60
  -4  -7 -20    7.10   13.30
   4   7 -20  -66.69   26.90
   4  -7  20   20.20   10.50
  -4  -7 -20   -5.70   11.90
  -4  -7 -20   48.00   32.80
  -4   8 -20   72.49   31.20
   4  -8 -20   86.39   15.40
  -4  -8  20   72.99   23.10
   4  -8 -20   43.40   25.40
  -4   8 -20  134.79   44.30
   4  -8  20   80.79   14.60
  -4  -8 -20   67.59   16.00
   4   8 -20  -54.39   38.40
  -4  -8 -20   54.49   16.00
  -4  -8 -20  110.89   39.30
   5   0 -20   40.90   13.20
  -5   0 -20   18.70    9.90
   5   0 -20   35.40   11.20
  -5   0 -20   11.90   13.20
  -5   0  20   42.70   18.10
  -5   1 -20   11.80    9.30
  -5   1 -20   22.10   15.00
   5  -1 -20   19.10   10.50
   5  -1 -20    7.50   11.00
  -5  -1  20   17.10   16.00
  -5   1  20    5.90   16.70
   5   1 -20   23.60   11.00
  -5  -1 -20   14.00   10.00
   5   1 -20   -5.80   14.40
   5   1 -20   25.70   10.40
  -5  -1 -20   10.50   10.60
   5  -2 -20   43.20   16.10
  -5  -2  20   24.70   18.40
  -5   2 -20   36.20   10.70
   5  -2 -20   45.70   12.60
  -5   2 -20   47.00   18.10
   5   2 -20   47.60   11.70
  -5   2  20   21.50   21.10
  -5  -2 -20   25.50   11.20
  -5  -2 -20   36.30   10.40
   5   2 -20   15.70   15.90
   5  -3 -20   23.50   14.70
  -5   3 -20   13.20    9.10
   5  -3 -20   10.30   10.30
  -5   3 -20   12.00   14.80
  -5  -3  20   -5.90   12.70
   5  -3 -20   13.00    5.50
   5   3 -20  -14.50   18.10
   5  -3  20   19.60   10.30
  -5   3  20  -30.50   15.80
  -5  -3 -20   29.10   11.70
  -5  -3 -20   10.80    8.80
   5  -4 -20   17.50    6.70
  -5  -4  20  -16.60   15.50
   5  -4 -20   11.00   17.50
   5  -4 -20    6.00   10.70
  -5   4 -20   -6.30   12.80
  -5   4 -20   18.00   10.20
  -5  -4 -20   19.10   12.40
  -5   4  20  -45.00   15.90
  -5  -4 -20   16.50   11.40
   5   4 -20  -29.40   20.70
  -5  -4 -20   16.70   20.70
   5  -4  20   18.80   10.30
   5  -5 -20    6.70    7.50
   5  -5 -20    1.00   16.70
  -5  -5  20    0.60   18.20
   5  -5 -20    8.80   10.70
  -5   5 -20    8.50   16.00
  -5   5 -20   10.90    9.50
  -5  -5 -20    4.40   12.00
  -5   5  20  -21.40   18.00
   5   5 -20  -43.10   23.60
   5  -5  20   -8.90    9.00
  -5  -5 -20   13.80   20.30
  -5  -5 -20    2.30   11.00
   5  -6 -20   13.30    8.80
  -5   6 -20    4.90   20.90
   5  -6 -20   11.10   18.90
  -5  -6  20   22.20   19.50
   5  -6 -20   10.80   10.90
  -5  -6 -20    1.90   12.00
  -5  -6 -20   -1.60   23.60
   5  -6  20    6.00   11.60
  -5  -6 -20   13.20   13.60
  -5   7 -20   32.50   27.00
  -5  -7  20   20.30   22.80
   5  -7 -20   35.00   10.90
  -5   7 -20  116.19   35.90
   5  -7 -20    5.50   22.20
  -5  -7 -20   28.00   17.40
  -5  -7 -20   54.39   30.40
   5   7 -20  -40.40   29.50
   5  -7  20   29.40   13.10
   6   0 -20  326.87   32.40
  -6   0 -20  277.47   31.00
  -6   0 -20  339.07   34.00
  -6   0  20  370.16   40.70
  -6   1 -20   15.40   10.10
  -6  -1  20   32.60   19.80
  -6   1 -20   28.10   16.40
   6  -1 -20   48.50   16.00
   6   1 -20   41.40   13.50
  -6  -1 -20   26.90   11.30
  -6  -1 -20   24.50   14.30
  -6   1  20   26.00   20.20
  -6   2 -20  163.48   26.40
   6  -2 -20  153.38   23.10
  -6  -2  20  134.49   28.70
  -6   2 -20  137.49   18.30
  -6  -2 -20  171.08   21.90
   6   2 -20  168.68   21.10
   6   2 -20   75.09   25.30
  -6  -2 -20  127.09   19.40
  -6   2  20  110.49   28.90
  -6  -3  20   -6.50   15.50
   6  -3 -20    7.00   14.80
  -6   3 -20    9.30   10.50
  -6   3 -20   11.10   16.40
  -6  -3 -20    6.60   11.40
   6   3 -20  -31.00   19.10
  -6  -3 -20    3.20   12.40
   6  -3  20    3.70   10.80
   6  -4 -20  133.49   24.50
  -6   4 -20  148.79   18.50
  -6   4 -20   82.69   25.10
  -6  -4 -20  157.78   20.90
   6  -4  20  153.68   20.70
   6   4 -20   58.99   27.80
  -6  -4 -20  131.59   20.50
  -6  -4 -20  135.19   30.20
   6  -5 -20    8.90   17.40
  -6  -5  20   -7.40   16.40
  -6   5 -20    5.80   16.20
  -6   5  20  -19.90   19.30
  -6  -5 -20    1.20   22.00
  -6  -5 -20    2.60   12.90
  -6  -5 -20    3.70   13.10
   6  -5  20   -0.80   12.00
   6   5 -20  -53.49   22.60
  -6  -6  20   92.29   26.70
  -6   6 -20  118.39   26.80
   6  -6 -20  129.69   27.60
  -6  -6 -20  143.59   21.90
  -6  -6 -20  141.19   22.50
   6   6 -20   44.00   34.10
  -6  -6 -20  116.09   33.20
   6  -6  20  157.58   20.50
  -6  -7  20   14.70   25.50
  -6   7 -20   10.70   25.60
   6  -7 -20   13.30   21.00
   6   7 -20  -62.49   33.50
   6  -7  20    5.60   12.00
  -6  -7 -20   -2.80   30.70
  -7   0  20   21.10   24.50
  -7   0 -20   15.60   11.20
   7   0 -20    4.50   12.60
  -7   0 -20   21.00   15.00
  -7  -1  20   40.30   25.40
  -7   1 -20   18.40   17.20
  -7   1 -20    2.20   10.00
   7  -1 -20   21.70   16.40
  -7  -1 -20   17.90   15.70
  -7  -1 -20   16.80   11.80
   7   1 -20   14.30   13.90
  -7   1  20   19.20   22.60
  -7  -2  20   17.50   21.10
  -7   2 -20   15.40   10.70
   7  -2 -20   37.10   18.40
  -7   2 -20   29.80   19.30
  -7   2  20  -43.70   22.60
  -7  -2 -20   22.40   12.80
  -7  -2 -20   16.30   13.30
  -7  -3  20   23.80   23.30
  -7   3 -20   13.10   11.40
   7  -3 -20   28.40   18.90
  -7   3 -20   10.20   20.90
  -7  -3 -20   21.40   14.60
  -7   3  20  -56.59   19.30
  -7  -3 -20   -2.10   12.00
   7   3 -20  -38.30   21.70
  -7   4 -20   12.10   11.80
  -7   4 -20   19.80   20.90
  -7  -4  20    7.50   17.90
   7  -4 -20    6.40   17.00
  -7  -4 -20   12.00   15.00
  -7   4  20  -52.39   23.20
  -7  -4 -20    5.70   10.40
   7  -4  20    8.10   12.40
   7   4 -20  -49.10   23.10
   7  -5 -20   15.70   21.50
  -7  -5  20   15.80   18.10
  -7   5 -20   18.70   17.00
  -7  -5 -20   21.40   26.00
  -7   5  20  -25.40   21.70
   7   5 -20  -29.70   24.50
  -7  -5 -20   25.50   14.40
   7  -5  20   34.60   14.70
  -7  -5 -20   28.10   15.40
  -7  -6  20    9.70   19.80
   7  -6 -20   22.40   21.40
  -7   6 -20   20.50   21.30
  -7  -6 -20   24.60   16.30
   7   6 -20  -55.79   30.80
  -7  -6 -20   16.10   27.70
   7  -6  20   24.60   14.60
  -8   0 -20   38.50   20.40
  -8   0 -20   24.20   13.40
  -8   0  20   28.80   26.70
   8   0 -20   48.10   18.10
  -8  -1  20  -21.10   26.00
   8  -1 -20   13.60   15.80
  -8   1 -20    2.30   16.20
  -8   1 -20    5.00   11.70
  -8   1  20  -24.30   23.80
  -8  -1 -20    7.60   17.10
  -8  -1 -20    0.40   12.10
   8   1 -20   16.90   16.10
  -8  -2  20  154.88   35.00
  -8   2 -20  225.98   29.70
   8  -2 -20  157.68   27.60
  -8   2 -20  135.89   20.90
  -8  -2 -20  153.58   23.30
  -8   2  20   73.39   32.40
  -8  -2 -20  206.48   28.00
  -8   3 -20    2.10   12.00
   8  -3 -20    7.60   17.70
  -8  -3  20    1.60   22.90
  -8   3 -20   11.00   19.10
  -8  -3 -20    3.20   13.50
  -8  -3 -20   -5.30   16.40
  -8   4 -20   89.19   29.00
  -8   4 -20   47.50   13.90
   8  -4 -20   71.29   25.40
  -8  -4  20   65.99   26.50
  -8  -4 -20   72.99   18.30
  -8   4  20    9.90   30.30
  -8  -4 -20   72.19   20.00
  -9   0 -20   18.20   14.60
  -9   0  20  -17.60   27.30
  -9   0 -20    1.00   21.00
   9   0 -20   37.20   19.70
  -9   1 -20   33.40   22.30
  -9   1 -20   -0.90   13.50
   9  -1 -20   19.60   20.10
  -9  -1  20  -14.90   29.80
  -9   1  20    0.30   18.20
  -9  -1 -20   -5.20   13.80
  -9  -1 -20   23.80   20.30
  -9   1  20  -63.89   28.90
  -9  -2  20    4.30   31.00
  -9   2 -20   -1.70   18.40
   9  -2 -20    6.80   20.40
  -9   2  20  -83.89   28.90
  -9  -2 -20    5.70   19.00
   0   0 -21   23.10   10.70
   0   0  21   27.10   10.90
   0   0 -21   35.30   13.40
   0   0 -21   19.30   11.40
   0   0 -21   28.90   11.20
   0  -1  21   -4.10    8.00
   0  -1 -21   -1.60   10.10
   0   1 -21    4.80   11.90
   0  -1 -21   -7.40    9.80
   0   1  21  -11.20   10.20
   0   1 -21    3.00    8.50
   0   1 -21    1.20   13.50
   0  -1 -21    7.00    7.90
   0  -1 -21   -1.80   10.20
   0   1 -21    2.20   10.80
   0   2 -21   24.30   16.30
   0   2 -21   11.90    8.30
   0  -2 -21   10.70    6.20
   0  -2  21    2.00    8.70
   0  -2 -21   20.50   13.30
   0   2 -21   14.60   14.10
   0   2 -21    7.60   12.50
   0  -2 -21    8.50   10.90
   0  -2 -21   33.50   11.30
   0   3  21  -22.50   10.00
   0  -3 -21    0.30   11.40
   0   3 -21  -11.60    6.30
   0  -3 -21    3.70    9.20
   0   3 -21  -11.20   14.00
   0   3 -21    1.20   17.70
   0   3 -21   -7.60    9.70
   0  -3  21   -0.30   10.10
   0  -3  21   -8.40    6.80
   0  -3 -21    0.30   12.50
   0  -4  21   86.29   12.20
   0   4 -21   78.89   23.90
   0  -4  21   96.89   17.20
   0  -4 -21  111.99   14.70
   0  -4 -21   83.49   18.10
   0  -4 -21  106.39   21.30
   0   4 -21   92.19   26.30
   0  -5  21   -3.80    6.70
   0   5 -21  -17.30    8.60
   0  -5 -21  -25.80    8.70
   0   5 -21   -0.40   23.20
   0  -5  21   -0.70   11.50
   0  -5 -21    0.90   16.20
   0  -5 -21    3.40   12.60
   0  -6 -21   19.90   11.00
   0   6 -21   30.80   29.10
   0  -6  21   25.10   13.80
   0  -6  21   18.50    8.00
   0  -6 -21   31.10   15.50
   0  -6 -21    4.90   19.30
   0  -7 -21  -20.40   21.00
   0  -7  21   -6.70   13.20
   0   7 -21   -8.80   35.20
   0  -7  21    7.10    8.50
   0  -7 -21   -9.00   12.20
   0  -7 -21  -22.10   15.90
   0  -8 -21   -2.40   18.30
   0  -8 -21    7.80   13.80
   0  -8  21   33.30   10.80
   0   8 -21  -32.90   33.60
   0  -8 -21   -5.30   25.20
   0  -8  21    4.90   15.90
   0  -9 -21  -60.49   30.00
   0  -9  21    7.30   10.50
   0  -9 -21   -1.00   13.10
   1   0 -21   -8.00    9.10
   1   0  21   -2.10    8.90
   1   0 -21   -4.30   10.70
  -1   0 -21   -3.40   10.30
   1   0 -21   -7.30    9.70
  -1   0 -21   -5.40    8.60
  -1   0  21   -2.00   10.80
   1   0 -21  -18.40   12.20
  -1   0 -21    1.30    9.20
   1  -1 -21  257.47   28.00
  -1   1 -21  212.98   23.70
  -1   1 -21  215.58   25.20
  -1  -1  21  206.98   26.00
   1  -1 -21  210.88   22.50
   1  -1 -21  285.87   26.90
  -1   1 -21  267.57   26.90
   1   1  21  221.18   25.60
   1  -1 -21  267.47   26.50
   1  -1  21  210.18   23.90
   1   1 -21  238.58   28.40
   1   1 -21  237.58   27.20
  -1  -1 -21  162.48   23.50
   1   1 -21  220.38   23.70
  -1   1  21  303.47   29.90
  -1  -1 -21  247.58   25.40
  -1  -1 -21  168.58   24.50
   1   1 -21  264.97   28.10
   1  -2 -21   29.10   11.60
   1  -2 -21   13.90   11.40
  -1  -2  21   -7.90    9.70
  -1   2 -21   25.80   13.60
  -1   2 -21   22.60   10.80
   1  -2 -21   20.00   13.40
  -1   2 -21   25.70    8.60
  -1   2 -21   26.50   14.40
   1   2 -21   25.30   16.80
  -1  -2 -21   20.40   11.00
   1  -2  21   -1.70    7.40
   1   2 -21   -8.90   10.50
  -1   2  21   16.20   13.30
  -1  -2 -21   23.80   13.40
  -1  -2 -21    5.60    9.10
   1   2 -21    3.30   15.20
   1  -3 -21  416.76   37.80
  -1   3 -21  468.05   39.00
   1  -3 -21  399.86   35.70
  -1   3 -21  337.27   31.10
  -1  -3  21  298.77   35.40
   1  -3  21  339.87   30.80
   1   3 -21  284.27   28.90
  -1  -3 -21  289.97   34.20
   1  -3  21  355.26   33.60
  -1  -3 -21  418.16   37.00
  -1   4 -21  106.69   25.90
  -1   4 -21   77.59   21.90
  -1  -4  21   61.89    9.60
   1  -4 -21   70.79   20.00
  -1   4 -21   74.99   16.00
   1  -4 -21   65.39   17.20
  -1  -4  21   53.59   14.80
   1   4 -21   79.79   27.80
   1  -4  21   60.79   13.40
  -1  -4 -21   29.60    9.90
  -1   4  21   30.10   16.70
   1  -4  21   55.49    9.60
  -1  -4 -21   39.20   13.80
  -1  -4 -21   80.49   19.30
   1   4 -21   54.09   14.30
  -1  -5  21  132.09   14.90
  -1   5 -21  171.28   29.10
  -1  -5  21  129.29   21.00
   1  -5 -21  163.88   24.30
  -1   5 -21  202.88   36.00
   1  -5 -21  138.39   18.40
   1  -5 -21  148.59   27.10
   1  -5  21  127.79   15.70
  -1  -5 -21  166.48   27.80
   1   5 -21  182.58   36.20
   1   5 -21  125.19   18.10
  -1  -5 -21  120.39   21.10
   1  -5  21  138.59   20.00
  -1   6 -21  -21.70   23.50
   1  -6 -21   10.30   14.60
   1  -6 -21    3.10   18.80
  -1   6 -21   53.49   29.70
  -1  -6  21   24.40    7.70
  -1  -6  21   45.80   15.90
   1  -6 -21   24.80   10.40
   1  -6  21   17.50    8.60
  -1  -6 -21    3.90   11.90
   1   6 -21   13.70   31.50
  -1  -6 -21   35.10   21.50
  -1  -6 -21   19.20   15.60
   1  -6  21   16.80   11.20
  -1   7 -21  244.58   50.79
   1  -7 -21   84.19   29.00
  -1  -7  21  139.49   16.20
  -1  -7  21  137.09   22.50
   1  -7 -21   82.89   23.70
   1  -7 -21  147.39   18.80
  -1  -7 -21  145.29   21.80
   1  -7  21  136.69   16.90
  -1  -7 -21  184.28   27.40
  -1  -7 -21  207.28   37.90
   1   7 -21  123.89   45.20
   1  -7  21  136.49   22.00
  -1  -8  21   19.80   17.80
   1  -8 -21    3.30   13.10
  -1   8 -21    1.40   36.30
  -1  -8  21   -1.90    8.50
   1  -8 -21  -60.39   21.40
   1  -8  21   -1.30   15.10
  -1  -8 -21   -6.70   26.70
   1   8 -21  -51.99   32.50
  -1  -8 -21    0.70   12.60
  -1  -8 -21  -13.80   18.60
   1  -8  21   16.50   10.10
  -1  -9  21   80.29   14.00
   1  -9 -21   86.39   17.50
  -1  -9 -21   71.49   18.00
   1  -9  21   61.39   14.50
  -2   0 -21    3.50   10.50
  -2   0 -21  -13.70    9.40
  -2   0 -21  -14.70    7.20
  -2   0  21    8.30   11.60
   2   0 -21  -13.70    8.90
   2   0  21   -1.40    8.40
  -2   1 -21   45.70   12.70
   2  -1 -21   34.20   13.10
  -2   1 -21   14.00   11.60
   2  -1 -21   37.70    9.70
  -2   1 -21    3.90    8.80
  -2  -1  21   39.70   14.20
   2  -1 -21   16.70   13.20
  -2   1  21   53.09   15.90
   2   1 -21    5.00    9.30
  -2  -1 -21   34.90   13.20
  -2  -1 -21   11.30    9.90
   2  -1  21   58.39   10.30
   2   1 -21   52.19   15.00
  -2  -1 -21   18.90   11.20
   2   1 -21    4.70   11.50
   2  -2 -21   -7.40   11.80
  -2   2 -21   40.30   11.00
  -2  -2  21    6.10   10.40
   2  -2 -21   12.80   13.20
  -2   2 -21   13.20   10.30
  -2   2 -21   33.90   14.30
   2   2 -21   22.20    7.80
  -2  -2 -21   30.20   11.70
  -2  -2 -21   28.20   15.10
   2   2 -21   24.20   15.60
  -2  -2 -21    0.50    9.40
   2   2 -21   11.40   10.90
  -2   2  21   37.70   17.80
   2  -2  21   11.10    7.20
  -2   3 -21   10.10   10.20
  -2  -3  21   -6.60   10.90
  -2   3 -21   13.80   15.20
   2  -3 -21  -19.00   11.60
   2  -3 -21   -5.40    7.30
   2  -3 -21  -21.90   14.10
   2  -3  21    3.40    8.70
  -2  -3 -21   -8.90    8.70
   2   3 -21    1.00   17.50
   2   3 -21    5.80   11.00
  -2  -3 -21    8.30   10.00
   2  -3  21    7.00    8.40
  -2  -3 -21    6.10   12.90
   2  -4 -21  -23.50   11.80
   2  -4 -21   12.70    8.30
  -2   4 -21   13.30   10.90
  -2  -4  21    6.60   13.00
  -2   4 -21   29.60   16.30
  -2  -4  21    6.90    6.20
  -2   4 -21   26.10   21.20
   2  -4 -21  -22.00   14.00
   2  -4  21    7.50    9.60
   2  -4  21   -4.70    7.80
  -2   4  21  -15.60   14.10
  -2  -4 -21   19.10   15.00
  -2  -4 -21  -16.60    8.60
   2   4 -21   -0.30   19.10
   2   4 -21   21.60    9.70
  -2  -4 -21    2.40   10.10
  -2   5 -21    6.10   11.60
  -2   5 -21   27.60   25.70
  -2   5 -21   26.20   19.30
  -2  -5  21    3.60    6.10
  -2  -5  21   11.00   13.10
   2  -5 -21  -21.00   12.70
   2  -5 -21    9.80    8.70
   2  -5 -21  -40.20   15.10
  -2  -5 -21   -6.70    9.70
   2  -5  21    9.50    8.90
   2   5 -21   -7.20   25.50
  -2  -5 -21    7.50   10.80
   2   5 -21   -1.90    7.40
   2  -5  21   12.40   10.40
  -2  -5 -21    8.50   17.10
  -2  -6  21   44.80   16.40
  -2   6 -21   78.79   33.30
   2  -6 -21   45.90   11.30
  -2  -6  21   32.80    8.00
   2  -6 -21  -16.90   18.40
  -2   6 -21   44.50   26.40
   2  -6  21   37.40   13.00
  -2  -6 -21   27.40   14.90
   2  -6  21   46.30   10.50
  -2  -6 -21   76.19   26.10
   2   6 -21   15.60   32.00
  -2   7 -21  -42.00   24.60
   2  -7 -21  -51.69   18.60
   2  -7 -21  -42.20   13.50
   2  -7 -21    0.80    9.20
  -2  -7  21    2.70    7.30
  -2  -7  21    0.40   14.30
  -2   7 -21   22.40   32.00
   2  -7  21   10.20    8.50
   2   7 -21  -29.50   29.90
  -2  -7 -21   -9.70   13.50
   2  -7  21    6.40   12.90
  -2  -7 -21    0.70   23.70
  -2  -7 -21    7.10   13.10
  -2  -8  21   29.90   19.60
   2  -8 -21   35.30   13.20
  -2   8 -21   41.90   38.60
   2  -8 -21  -46.80   21.20
   2   8 -21  -40.80   33.30
   2  -8  21   24.10   15.40
   2  -8  21   17.50   11.00
  -2  -8 -21   28.70   19.30
  -2  -8 -21    5.80   13.50
  -2  -8 -21   14.80   31.60
   3   0 -21  -18.40    9.10
  -3   0  21    4.30   14.20
   3   0 -21   -4.80    7.50
  -3   0 -21   -7.90   11.70
  -3   0 -21   -3.10    8.90
   3   0 -21   -9.60    9.40
   3  -1 -21  241.68   33.50
  -3   1 -21  303.57   32.90
   3  -1 -21  261.07   33.90
  -3  -1  21  393.56   36.90
  -3  -1 -21  368.06   36.20
  -3  -1 -21  349.87   33.90
   3   1 -21  333.87   31.50
   3   1 -21  260.77   35.70
   3   1 -21  365.56   34.50
  -3   1  21  453.25   39.10
   3  -1  21  419.36   30.80
  -3  -1 -21  351.66   33.90
  -3   2 -21  -20.50   10.90
   3  -2 -21   -8.30   11.10
  -3   2 -21    0.60    8.40
  -3  -2  21   -2.60   10.90
   3  -2 -21    2.50    5.70
   3  -2 -21  -21.30   11.50
   3   2 -21   10.80    7.70
  -3  -2 -21   19.30   11.50
   3  -2  21    2.10    5.50
   3   2 -21    3.70   14.90
  -3   2  21   -8.40   14.90
   3   2 -21    8.20    9.90
  -3  -2 -21    6.10   13.20
  -3  -2 -21    8.50   10.50
   3  -3 -21   81.29    9.90
  -3   3 -21   29.30   11.20
   3  -3 -21    2.40   15.30
   3  -3 -21   47.50   15.50
  -3   3 -21   69.79   18.50
  -3  -3  21   46.80   17.20
   3   3 -21   49.30   22.00
  -3   3  21  -10.10   18.40
   3  -3  21   78.69   12.00
  -3  -3 -21   56.29   14.60
   3   3 -21   95.39   15.10
  -3  -3 -21   75.89   14.10
   3  -3  21   78.59   12.80
  -3  -3 -21   44.40   19.80
   3  -4 -21  -20.90   11.40
  -3   4 -21    0.80    9.30
   3  -4 -21    3.50    6.50
  -3  -4  21    5.40   13.80
  -3   4 -21   12.40   15.10
  -3  -4 -21    5.30   18.40
   3  -4  21   10.10    9.30
   3   4 -21  -23.90   18.10
  -3  -4 -21   -4.80   10.50
  -3  -4 -21   10.60    9.50
  -3   4  21  -40.00   16.50
   3   4 -21   17.80    9.40
   3  -4  21   15.80    9.00
   3  -5 -21  239.98   34.90
  -3  -5  21  312.27   38.10
  -3   5 -21  362.36   39.30
   3  -5 -21  314.57   29.00
  -3   5 -21  402.06   46.20
  -3   5 -21  339.77   32.30
  -3   5  21  267.37   39.10
  -3  -5 -21  303.27   31.00
   3  -5  21  351.36   31.80
   3  -5  21  299.87   29.40
  -3  -5 -21  333.87   39.30
   3   5 -21  286.67   50.69
   3  -6 -21  -45.50   17.00
  -3  -6  21    1.50   15.10
   3  -6 -21   15.30    9.40
  -3   6 -21   40.50   29.20
  -3   6 -21   -7.70   22.10
   3  -6 -21    3.60   14.50
   3  -6  21   17.80   10.40
   3  -6  21    8.50   11.50
  -3  -6 -21    9.90   21.30
  -3  -6 -21   -0.40   10.70
   3   6 -21  -32.40   25.70
  -3  -7  21   84.19   23.30
  -3   7 -21  127.99   42.20
   3  -7 -21   45.00   17.50
   3  -7 -21   87.49   14.10
  -3   7 -21   82.29   31.10
   3  -7  21   66.99   13.80
  -3  -7 -21   34.70   16.30
   3  -7  21   77.69   16.60
   3   7 -21  -19.50   37.50
  -3  -7 -21   63.69   16.90
  -3  -7 -21  122.89   36.00
  -3   8 -21  -62.29   28.00
  -3   8 -21   34.00   41.70
   3  -8 -21   28.10   13.00
  -3  -8  21   -3.00   17.20
   3   8 -21  -90.29   36.10
  -3  -8 -21    4.20   34.60
  -3  -8 -21  -10.30   14.90
   3  -8  21   -5.70   14.50
  -3  -8 -21   42.70   18.10
   3  -8  21   10.10   11.20
   4   0 -21  -14.10   11.00
   4   0 -21   11.40   10.10
  -4   0 -21    3.80   11.40
   4   0 -21    0.60    3.50
  -4   0 -21    7.20    9.70
  -4   0  21   22.30   16.60
   4   0 -21    9.70   10.20
   4  -1 -21   51.69   14.40
  -4  -1  21   63.09   18.10
  -4   1 -21   51.99   12.60
  -4   1 -21   53.99   16.00
   4  -1 -21   58.39    7.10
   4  -1 -21   38.50   13.30
  -4  -1 -21   50.09   11.50
   4   1 -21   67.59   13.70
  -4  -1 -21   69.39   15.10
   4   1 -21   63.59   12.80
  -4   1  21   50.79   20.30
   4   1 -21   21.80   15.90
  -4   2 -21    2.60    8.90
   4  -2 -21   -4.80   12.30
  -4   2 -21    0.70   12.60
  -4  -2  21   -6.10   12.50
   4  -2 -21   -1.30    4.80
   4  -2 -21   14.40   11.60
   4   2 -21    6.30    8.60
   4   2 -21  -16.90   14.10
  -4  -2 -21   27.10   17.20
  -4  -2 -21    6.10   10.60
  -4  -2 -21    6.80   10.30
  -4   2  21   -0.50   18.50
   4   2 -21    7.30    9.80
   4  -3 -21   13.20   15.80
  -4   3 -21   51.49   13.60
  -4   3 -21   12.80   15.00
   4  -3 -21   55.09    8.10
   4  -3 -21   60.79   14.70
  -4  -3  21    9.10   15.80
   4   3 -21   61.69   12.80
  -4  -3 -21   70.29   21.20
  -4  -3 -21   54.69   14.20
  -4   3  21  -15.00   19.70
   4  -3  21   45.10   11.80
  -4  -3 -21   67.29   13.40
   4   3 -21   16.30   19.80
  -4   4 -21   14.90    8.70
   4  -4 -21   20.60    7.10
  -4   4 -21   20.80   15.40
   4  -4 -21   -7.20   15.70
  -4  -4  21   22.20   16.30
   4  -4 -21   13.10   12.50
  -4  -4 -21    6.10   16.80
  -4  -4 -21   23.10   10.80
   4  -4  21   17.70   10.30
   4   4 -21  -10.00   22.30
  -4  -4 -21   14.90   12.60
  -4   5 -21   22.30    9.20
   4  -5 -21   -2.40   11.50
  -4  -5  21    6.80   16.20
  -4   5 -21   -6.80   15.90
   4  -5 -21  -39.10   15.70
   4  -5 -21   -5.50    7.30
  -4  -5 -21  -11.60   18.50
  -4  -5 -21    9.50   12.80
   4   5 -21  -38.40   20.90
  -4  -5 -21   -0.10   10.80
  -4   5  21  -21.10   17.60
   4  -5  21    5.90   10.20
   4  -6 -21   17.30    9.40
  -4   6 -21   50.39   26.50
  -4  -6  21   -1.90   19.40
   4  -6 -21   19.90   12.50
  -4   6 -21    6.00   19.20
   4  -6 -21  -28.00   17.40
   4   6 -21  -47.00   24.60
  -4  -6 -21    4.20   22.80
  -4  -6 -21    5.50   13.40
   4  -6  21   10.00    9.70
   4  -7 -21   19.30   10.70
  -4  -7  21   20.50   18.90
  -4   7 -21   -4.40   22.90
   4  -7 -21   -8.00   11.00
   4  -7 -21  -46.80   19.70
  -4   7 -21   34.50   32.70
   4  -7  21    8.90   11.70
  -4  -7 -21   11.80   27.30
  -4  -7 -21   29.30   15.40
   4  -8 -21   22.80   12.40
   4  -8 -21  -49.80   24.00
  -4   8 -21    1.50   29.60
  -4   8 -21   54.69   43.10
  -4  -8  21    7.10   19.10
  -4  -8 -21   -1.20   14.90
  -4  -8 -21   19.10   37.40
   4  -8  21   21.20   12.60
   5   0 -21    9.60   10.40
  -5   0  21   12.80   16.60
   5   0 -21   10.70   11.40
  -5   0 -21    3.90   13.30
  -5   0 -21   -0.20    9.10
  -5   1 -21  141.19   19.50
   5  -1 -21  146.79   23.00
  -5   1 -21  137.89   23.30
  -5  -1  21  185.68   28.60
   5  -1 -21  180.48   21.80
   5   1 -21  161.08   20.80
  -5   1  21  179.78   29.20
  -5  -1 -21  151.18   20.40
  -5  -1 -21  153.98   20.10
   5   1 -21  174.98   21.20
   5   1 -21  124.39   27.00
  -5   2 -21    8.50    9.50
   5  -2 -21   10.50   11.10
  -5  -2  21   10.70   17.50
  -5   2 -21    4.00   14.70
   5  -2 -21    1.70   12.80
   5   2 -21  -20.90   14.70
  -5  -2 -21    8.40   10.30
  -5   2  21   -0.50   17.70
  -5  -2 -21    8.30   10.80
   5   2 -21   12.10   10.30
  -5   3 -21  237.48   37.70
  -5   3 -21  350.86   31.70
   5  -3 -21  339.47   33.10
   5  -3 -21  326.47   27.10
   5  -3 -21  269.17   35.70
  -5  -3 -21  321.57   31.50
  -5  -3 -21  394.56   41.00
   5   3 -21  265.37   43.40
   5  -3  21  252.17   30.60
  -5  -3 -21  325.77   32.50
  -5   4 -21    4.80    9.20
   5  -4 -21    7.60    6.60
   5  -4 -21   -5.80   15.90
   5  -4 -21    5.90   11.00
  -5   4 -21   -7.20   13.00
  -5  -4  21  -21.00   13.20
   5  -4  21    0.00   11.30
  -5  -4 -21   -6.30   18.40
  -5  -4 -21    1.10   11.70
   5   4 -21  -26.10   22.20
  -5  -4 -21    0.80   12.10
  -5  -5  21   34.80   21.30
   5  -5 -21   39.20   13.40
  -5   5 -21   23.70   17.90
   5  -5 -21    2.00   17.30
   5  -5 -21   43.90    9.40
  -5  -5 -21   33.20   22.60
  -5  -5 -21   37.70   13.70
   5   5 -21  -15.30   27.10
   5  -5  21   52.69   13.50
  -5  -5 -21   29.60   14.70
  -5   5  21   -6.10   21.00
   5  -6 -21  -13.10   18.00
   5  -6 -21   13.50   13.40
   5  -6 -21   12.40    9.40
  -5  -6  21   20.00   19.30
  -5   6 -21   12.70   19.90
  -5  -6 -21   -1.70   13.40
  -5  -6 -21   -4.20   24.20
   5  -6  21    8.60   12.20
  -5  -6 -21    1.20   13.60
   5  -7 -21  115.79   17.10
  -5   7 -21  174.58   34.90
   5  -7 -21   65.99   26.70
  -5   7 -21  181.38   45.70
   5  -7 -21  120.39   19.10
  -5  -7  21   98.89   26.90
   5  -7  21  130.69   19.30
  -5  -7 -21  162.18   40.70
   5   7 -21   17.50   37.60
  -5  -7 -21  132.79   23.30
   6   0 -21   10.60   13.70
  -6   0 -21    8.40   10.20
  -6   0 -21    5.40   14.60
  -6   0  21   11.00   18.20
  -6  -1  21   82.79   23.80
  -6   1 -21   37.20   12.10
   6  -1 -21   72.59   17.50
  -6   1 -21   62.39   17.40
   6   1 -21   51.99   14.60
  -6   1  21   34.80   23.80
  -6  -1 -21   62.49   16.80
  -6  -1 -21   47.10   13.30
  -6   2 -21   12.60   16.10
   6  -2 -21   11.50   16.30
  -6   2 -21    7.30    9.60
  -6  -2  21   -3.30   18.80
   6   2 -21  -29.40   18.40
  -6   2  21  -24.00   20.70
   6   2 -21    6.60   12.50
  -6  -2 -21   -1.80   10.80
  -6  -2 -21   11.10   13.70
  -6   3 -21   10.30   19.10
   6  -3 -21   -3.00   14.60
  -6   3 -21   19.90   11.70
  -6  -3  21   -1.00   17.20
  -6  -3 -21   -3.80   12.90
  -6   3  21  -48.10   20.70
   6   3 -21   -4.70   19.20
  -6  -3 -21    6.10   12.10
   6  -4 -21    2.00   16.50
  -6  -4  21   -0.20   15.30
  -6   4 -21    4.50   15.50
  -6   4 -21    7.60   10.90
  -6  -4 -21   16.40   13.50
  -6  -4 -21   11.20   22.40
  -6  -4 -21    3.60   12.20
   6  -4  21    4.60   12.70
   6   4 -21  -30.80   21.70
   6  -5 -21    3.10   18.60
  -6  -5  21  -11.60   19.50
  -6   5 -21    1.40   17.30
  -6  -5 -21   27.20   14.20
  -6   5  21  -22.40   24.20
   6  -5  21   15.80   11.90
  -6  -5 -21   30.10   14.60
   6   5 -21  -37.50   25.10
  -6  -5 -21    7.30   22.60
   6  -6 -21   14.60   20.20
  -6  -6  21   23.20   20.90
  -6   6 -21   31.20   22.40
  -6  -6 -21   37.80   26.70
  -6  -6 -21   30.00   15.60
  -6  -6 -21   32.00   14.70
   6  -6  21   21.40   13.10
  -7   0 -21    7.90   16.60
   7   0 -21    4.30   15.20
  -7   0  21   -4.90   20.80
  -7   0 -21   -2.40   10.60
   7  -1 -21  169.08   24.90
  -7  -1  21  201.88   34.20
  -7   1 -21  184.88   27.20
  -7   1 -21  150.68   21.80
  -7  -1 -21  163.38   22.90
   7   1 -21  180.28   26.30
  -7   1  21  178.68   34.20
  -7  -1 -21  208.88   27.50
   7  -2 -21   10.30   16.20
  -7   2 -21   20.00   19.50
  -7  -2  21    5.00   24.10
  -7   2 -21    2.80   10.40
  -7  -2 -21    9.10   13.50
  -7  -2 -21    4.50   12.00
  -7   2  21  -12.20   21.90
  -7   3 -21   67.79   15.50
   7  -3 -21   85.09   22.40
  -7  -3  21  116.29   30.30
  -7   3 -21   78.19   22.80
  -7  -3 -21   65.59   16.40
  -7  -3 -21   92.99   18.80
  -7   3  21   -2.20   24.50
   7   3 -21    5.90   27.00
  -7   4 -21    9.20   12.10
  -7   4 -21    9.60   20.50
   7  -4 -21   20.30   19.40
  -7  -4  21    4.40   18.50
   7   4 -21  -44.10   24.70
  -7  -4 -21   27.60   16.10
  -7  -4 -21   13.80   14.10
   7  -4  21   12.10   13.10
  -7   5 -21   70.79   22.80
   7  -5 -21  112.19   27.20
  -7  -5  21   51.19   22.70
   7  -5  21  171.88   23.40
  -7  -5 -21  113.99   20.80
  -7   5  21   43.70   31.40
  -7  -5 -21  121.49   33.30
  -7  -5 -21  141.19   22.40
   8   0 -21   18.90   17.80
  -8   0  21   -7.80   27.10
  -8   0 -21   -4.90   11.90
  -8   0 -21   12.30   19.00
  -8   1 -21    8.20   12.40
   8  -1 -21   18.90   18.90
  -8   1 -21   34.80   22.00
  -8  -1  21    7.00   24.70
  -8  -1 -21   24.40   18.60
  -8   1  21  -10.30   27.50
  -8  -1 -21    8.30   13.30
   8   1 -21   29.30   17.50
   8  -2 -21   15.00   20.00
  -8   2 -21    9.60   11.80
  -8  -2  21   21.60   27.10
  -8   2 -21   18.50   23.20
  -8  -2 -21   18.30   15.60
  -8   2  21  -36.00   26.50
  -8  -2 -21   16.80   14.40
  -8   3 -21   10.90   13.00
   8  -3 -21   16.80   21.50
  -8  -3  21    5.70   24.10
  -8   3 -21   42.40   25.20
  -8  -3 -21   17.90   15.00
  -8  -3 -21   16.90   18.10
  -8   4 -21   24.70   24.00
   8  -4 -21   -2.10   19.80
  -8  -4  21   32.50   23.80
  -8  -4 -21   27.80   18.40
  -9   0  21  -13.70   27.10
   9   0 -21   10.10   19.10
  -9   0 -21    6.00   18.00
  -9  -1  21   59.19   31.60
  -9   1 -21   73.69   22.60
   9  -1 -21   83.09   22.60
  -9  -1 -21   78.39   21.70
  -9   1  21   -3.20   32.70
   0   0 -22  320.77   32.60
   0   0 -22  318.97   32.30
   0   0 -22  372.96   33.90
   0   0  22  304.27   32.70
   0   0 -22  329.47   32.70
   0   1 -22    0.90    8.60
   0  -1  22    1.00    9.20
   0  -1 -22    5.90    8.00
   0   1 -22   -2.60   10.60
   0  -1 -22   -0.40   10.60
   0   1  22   -5.30   11.00
   0   1 -22    9.70   12.00
   0   1 -22  -10.00   13.20
   0  -1 -22    4.60   10.00
   0  -1 -22    6.30   10.40
   0   2 -22    9.90   13.80
   0   2 -22    0.80    8.00
   0  -2 -22    9.30    9.30
   0  -2  22  -10.80    7.80
   0  -2 -22   -0.60    5.70
   0  -2 -22   11.80   11.60
   0  -2 -22    3.40    9.80
   0   2 -22    6.20   15.00
   0   2  22  -15.70   11.20
   0   2 -22    4.90   11.60
   0  -3  22   -6.60   10.40
   0   3 -22  -11.90    6.60
   0   3 -22    4.00   12.60
   0  -3 -22    1.00   11.30
   0  -3 -22   -3.20    9.40
   0  -3 -22    8.40   12.80
   0   3 -22  -12.30   17.10
   0   3 -22    3.10   17.70
   0  -4  22   78.29   12.80
   0  -4 -22  116.99   22.50
   0  -4 -22   88.99   18.70
   0   4 -22  108.69   26.70
   0  -4  22   84.89   18.20
   0   4 -22  131.09   30.70
   0  -4 -22  120.49   15.60
   0  -5 -22   -1.10   13.00
   0  -5 -22   -3.10   16.70
   0   5 -22   -7.40   25.10
   0  -5  22    5.20   12.60
   0   5 -22  -22.80    9.80
   0  -5  22    5.30    7.50
   0  -6 -22  149.69   28.90
   0  -6 -22  143.19   24.10
   0   6 -22  165.48   39.60
   0  -6  22  115.79   21.00
   0  -6 -22  114.39   19.50
   0  -6  22  128.69   15.80
   0  -7 -22   -4.80   24.30
   0  -7  22    1.80   14.60
   0  -7 -22  -10.60   17.30
   0  -7 -22   -9.50   11.30
   0   7 -22   -9.00   30.50
   0  -7  22    7.20    8.60
   0  -8 -22  -29.70   26.60
   0  -8  22    8.10    9.60
   0  -8 -22    8.10   13.00
   0   8 -22  -24.70   39.40
   0  -8  22    9.40   16.60
   0  -8 -22   -4.60   19.80
   1   0  22    8.60    9.80
  -1   0  22   15.80   12.30
   1   0 -22    3.70   11.60
   1   0 -22   -1.30    9.80
   1   0 -22   -2.40   10.60
  -1   0 -22    8.00   10.10
   1   0 -22   -8.70   12.60
  -1   0 -22    0.50   10.20
  -1   0 -22  -10.50    9.00
   1  -1 -22   -2.20   12.20
  -1  -1  22    7.90   10.60
  -1   1 -22    6.50    9.90
  -1   1 -22   10.90    9.20
   1  -1 -22   -2.80   11.50
   1  -1 -22    4.50   11.60
   1   1  22   -4.70    9.20
   1  -1 -22   -8.10    7.00
  -1   1 -22   11.50   12.70
  -1  -1 -22    7.20   11.00
   1   1 -22   -4.10   10.80
   1   1 -22   -0.70   12.20
  -1   1  22    4.20   11.40
   1  -1  22    2.70    8.60
   1   1 -22   -8.10    8.90
  -1  -1 -22   -7.30    9.10
  -1  -1 -22   -3.00    9.90
   1   1 -22   -6.60   14.60
   1  -2 -22   16.20   14.60
  -1   2 -22   22.00   13.40
  -1   2 -22   33.40   15.10
  -1   2 -22   20.20   11.10
   1  -2 -22   17.10   13.40
  -1  -2  22    2.50    9.30
   1  -2 -22   16.90   12.00
  -1   2 -22   16.60    8.80
  -1  -2 -22   19.90   13.20
  -1   2  22   12.20   15.00
   1   2 -22   -2.50   11.60
   1  -2  22   -6.60    7.50
  -1  -2 -22    7.00    8.20
   1   2 -22   25.40   16.40
  -1  -2 -22    5.10   10.00
   1  -3 -22   11.80   14.20
  -1  -3  22   -4.20   11.50
  -1   3 -22    7.20    7.40
   1  -3 -22    3.00   13.00
  -1   3 -22   15.10   18.30
  -1   3 -22    9.80   14.50
  -1   3 -22   -0.90   11.70
   1  -3  22   -3.40    8.20
   1   3 -22   -6.30    6.50
   1   3 -22    8.50   16.60
  -1  -3 -22   -1.90    8.80
  -1  -3 -22    6.90   10.70
   1  -3  22    3.70   10.30
  -1  -3 -22   12.40   13.20
  -1   4 -22  -10.80   14.90
   1  -4 -22    3.50   13.50
   1  -4 -22   -3.50   15.20
  -1   4 -22   -7.80   11.00
  -1  -4  22    2.30   11.80
  -1  -4  22    3.00    7.10
  -1   4 -22   18.00   21.90
   1  -4  22   -0.80    7.90
  -1   4  22  -33.10   14.00
  -1  -4 -22    2.90    8.40
   1   4 -22    6.20   20.20
  -1  -4 -22   10.30   14.10
  -1  -4 -22    2.70   11.30
   1  -4  22    1.50   10.30
   1   4 -22  -17.20   10.40
  -1  -5  22   20.50    7.60
  -1   5 -22   21.90   23.00
  -1   5 -22  -25.30   10.30
   1  -5 -22   -5.80    8.80
  -1   5 -22   29.70   26.70
   1  -5 -22   -6.40   16.80
   1  -5 -22    8.00   14.20
  -1  -5  22    9.00   12.80
   1   5 -22   12.80   24.00
  -1  -5 -22    6.30   12.20
  -1  -5 -22   17.00   16.70
   1   5 -22   12.20   10.50
   1  -5  22   10.30    7.90
   1  -5  22   11.50   11.50
   1  -6 -22   -5.90   19.00
   1  -6 -22   -7.80   15.90
  -1  -6  22    0.70   14.20
  -1   6 -22   13.00   27.40
   1  -6 -22   -3.00   11.40
  -1   6 -22  -34.90   24.20
  -1  -6  22   -1.70    7.10
   1  -6  22   -1.40   12.00
  -1  -6 -22  -48.80   12.10
   1  -6  22   -3.90    7.40
  -1  -6 -22    0.20   18.90
  -1  -6 -22  -10.30   12.70
   1   6 -22  -21.60   26.50
   1  -7 -22   23.50   13.00
   1  -7 -22  -20.10   21.10
  -1  -7  22   15.40    8.20
  -1   7 -22    7.60   32.40
   1  -7 -22  -23.10   16.90
  -1  -7  22    6.50   13.80
   1  -7  22    5.50   13.70
   1  -7  22   14.60    9.00
   1   7 -22  -21.60   30.30
  -1  -7 -22   15.70   23.90
  -1  -7 -22   -2.00   12.40
  -1  -7 -22   16.60   17.80
  -1  -8  22   13.50    9.80
   1  -8 -22  -63.89   22.30
  -1  -8  22    5.50   17.30
  -1   8 -22   -5.60   36.40
   1  -8 -22   11.90   12.50
   1   8 -22  -44.20   34.60
  -1  -8 -22   20.70   16.10
   1  -8  22   -9.80   15.20
  -1  -8 -22    4.30   19.30
   1  -8  22    3.60    9.70
  -1  -8 -22  -21.00   25.70
   2   0 -22   -7.10    9.80
  -2   0  22    3.90   11.20
   2   0 -22  -20.10    9.20
   2   0  22   -0.60    8.10
   2   0 -22  -29.30   10.60
  -2   0 -22  -12.70    7.80
  -2   0 -22  -12.70    8.30
  -2   0 -22   -9.40    8.90
  -2   1 -22    6.50   10.90
   2  -1 -22   22.80    9.50
   2  -1 -22   13.60   13.00
  -2   1 -22   15.90   11.10
   2  -1 -22    5.50   13.10
  -2   1 -22   -1.00    8.80
  -2  -1  22   30.80   12.80
   2   1 -22   31.60   14.60
   2   1 -22  -16.70   11.00
   2  -1  22   37.10    9.60
  -2  -1 -22   10.20    9.80
  -2  -1 -22   -1.10    8.90
  -2  -1 -22   15.60   12.10
  -2   1  22   68.79   17.50
   2   1 -22  -20.00    8.80
  -2  -2  22   86.79   19.20
  -2   2 -22  172.68   23.00
  -2   2 -22   98.39   16.60
   2  -2 -22  155.58   22.60
   2  -2 -22  154.58   22.70
  -2  -2 -22  104.19   17.70
  -2  -2 -22   63.69   16.00
   2   2 -22  124.19   14.40
   2  -2  22   86.49   14.20
   2   2 -22   91.59   18.00
  -2   3 -22    1.50   15.00
  -2   3 -22    0.30    8.70
   2  -3 -22  -16.70   15.00
   2  -3 -22   -6.10   12.70
  -2  -3  22  -14.70   12.40
  -2   3 -22   -0.80    9.00
   2  -3  22   -1.30    8.10
  -2  -3 -22  -17.20    8.60
  -2  -3 -22    1.60   12.90
  -2   3  22  -39.60   14.60
   2   3 -22   -9.20    9.90
   2   3 -22   -1.80   15.70
   2  -3  22   -5.60    8.60
  -2  -3 -22   -3.50    9.90
   2  -4 -22   19.40   16.20
  -2  -4  22   57.19   18.20
  -2  -4  22   60.19    9.80
  -2   4 -22   60.29   14.50
   2  -4 -22   47.90   10.90
  -2   4 -22   86.39   22.10
   2  -4 -22   31.80   19.30
  -2   4 -22  104.59   27.20
   2  -4  22   76.29   12.40
   2   4 -22   62.99   27.30
   2   4 -22   58.69   14.20
  -2  -4 -22   69.79   19.60
   2  -4  22   52.39   13.20
  -2  -4 -22   47.80   13.10
  -2  -5  22   -1.50   13.10
   2  -5 -22  -28.80   12.40
  -2   5 -22   -2.40   20.20
  -2   5 -22   18.30   23.30
  -2  -5  22    1.00    6.30
   2  -5 -22  -31.20   16.60
  -2   5 -22   -7.60   11.10
   2  -5 -22   -3.60    8.80
   2  -5  22    5.80   10.10
  -2  -5 -22   14.00   10.40
   2  -5  22   -1.00    8.70
  -2  -5 -22   -8.20   10.70
   2   5 -22    3.70    8.60
  -2  -5 -22   12.50   17.00
   2   5 -22  -24.20   21.90
   2  -6 -22  -12.20   16.70
  -2  -6  22   38.40   18.40
   2  -6 -22   41.90   11.00
  -2   6 -22   61.79   30.00
   2  -6 -22  -13.40   21.90
  -2   6 -22   59.49   23.90
  -2  -6  22   44.10    8.80
  -2  -6 -22   38.50   16.00
  -2  -6 -22   51.39   23.40
   2  -6  22   39.70   13.70
   2   6 -22   19.40   29.90
   2  -6  22   49.70   11.00
  -2   7 -22  -22.10   27.00
   2  -7 -22  -41.10   14.70
  -2   7 -22   66.39   35.00
  -2  -7  22   12.80   15.60
   2  -7 -22  -52.19   19.30
   2  -7 -22   14.40   12.30
  -2  -7 -22   -5.50   12.80
   2  -7  22    6.30    8.70
   2  -7  22   15.50   13.60
  -2  -7 -22   39.90   26.30
  -2  -7 -22   17.90   14.50
   2   7 -22  -30.00   31.60
   2  -8 -22  113.29   18.60
  -2  -8  22   80.69   22.10
  -2   8 -22  157.68   50.79
  -2  -8 -22  189.58   43.10
   2  -8  22  102.09   21.10
   2   8 -22   46.20   42.50
  -2  -8 -22   99.99   21.60
  -2  -8 -22  130.49   26.20
   2  -8  22   92.89   15.20
  -3   0 -22   27.00   13.80
   3   0 -22    0.60   11.40
  -3   0  22   62.39   16.50
   3   0 -22    7.30   11.90
   3   0 -22    2.20   12.10
  -3   0 -22   16.90   13.70
  -3   0 -22   18.20    9.20
  -3  -1  22   10.70   12.90
   3  -1 -22   -9.00    8.70
   3  -1 -22  -32.10   11.10
  -3   1 -22   -4.90    9.20
  -3   1 -22  -12.90   10.20
  -3   1  22   12.30   14.20
   3   1 -22   -9.20    9.10
  -3  -1 -22   -0.30   11.80
   3  -1  22   -1.90    6.70
  -3  -1 -22   -9.60    9.40
   3   1 -22    5.70   10.70
  -3  -1 -22   -1.00   14.10
   3   1 -22  -19.20   12.40
  -3   2 -22  -15.60   11.80
   3  -2 -22  -12.70    5.50
  -3  -2  22   -7.50   12.80
  -3   2 -22   -7.80    9.20
   3  -2 -22  -21.90   11.10
   3   2 -22   -6.60   14.70
   3   2 -22    7.90   10.70
  -3  -2 -22    1.70   10.80
  -3  -2 -22   -3.70   10.40
  -3  -2 -22   -5.70   12.80
   3   2 -22    0.20    7.70
   3  -2  22    0.10    5.70
  -3   2  22   -3.20   15.30
  -3   3 -22   -2.10    7.60
   3  -3 -22  -12.40    9.20
   3  -3 -22   11.40    7.20
  -3  -3  22  -15.90   11.20
  -3   3 -22    3.40   14.30
  -3  -3 -22    2.40   11.20
   3   3 -22    8.30   10.20
   3  -3  22    4.40    8.00
   3   3 -22    1.40   18.40
  -3  -3 -22   -4.10   14.00
   3  -3  22    2.20   10.40
  -3   3  22  -23.50   17.70
  -3  -3 -22   10.50   11.20
   3  -4 -22  -39.60   17.40
   3  -4 -22   14.40    7.90
   3  -4 -22  -27.10   12.30
  -3   4 -22    9.70    9.00
  -3   4 -22    6.80   15.50
  -3  -4  22   -9.30   15.60
   3  -4  22   10.90    9.40
  -3  -4 -22    0.70   18.20
   3   4 -22  -19.80   18.90
  -3  -4 -22   10.50   11.30
  -3  -4 -22    2.40   11.90
   3  -4  22   12.40    9.10
   3   4 -22   19.80   10.30
  -3   5 -22   47.50   24.70
  -3   5 -22   11.30   11.00
  -3   5 -22   26.00   21.40
   3  -5 -22    9.80    8.50
   3  -5 -22  -24.20   12.70
  -3  -5  22   14.60   15.60
  -3  -5 -22    0.10   11.50
   3  -5  22   28.90   10.30
  -3  -5 -22   22.60   19.10
  -3   5  22  -30.50   16.60
   3   5 -22  -30.10   25.40
  -3  -5 -22   28.70   12.70
   3  -5  22   22.80   10.90
   3  -6 -22   15.10    9.70
   3  -6 -22  -21.50   12.60
  -3   6 -22   11.30   20.80
  -3   6 -22   29.00   28.00
  -3  -6  22   16.80   18.70
   3  -6  22   -7.80   10.40
  -3  -6 -22   -3.90   20.90
   3   6 -22  -39.40   26.40
  -3  -6 -22    3.10   10.90
   3  -6  22    5.90    9.20
  -3   7 -22   19.60   31.90
   3  -7 -22    5.10   10.80
  -3   7 -22   -1.90   25.90
   3  -7 -22  -10.10   12.70
  -3  -7  22    4.70   16.70
   3   7 -22  -61.29   34.10
   3  -7  22   15.40   13.10
  -3  -7 -22   37.80   27.60
  -3  -7 -22    9.00   12.40
  -3  -7 -22  -35.10   13.60
   3  -7  22    2.30   10.90
  -3  -8  22    7.10   20.50
  -3   8 -22   24.80   37.20
  -3   8 -22  -50.59   29.00
   3  -8 -22   12.00   12.10
   3  -8  22   10.40   11.80
   3   8 -22  -70.29   33.30
  -3  -8 -22    6.50   30.60
   3  -8  22  -11.40   14.20
  -3  -8 -22  -17.80   13.20
  -3  -8 -22   38.70   18.60
   4   0 -22  121.59   19.50
   4   0 -22  102.49   21.00
  -4   0  22  164.58   24.80
  -4   0 -22   97.79   17.30
  -4   0 -22  122.29   20.20
   4   0 -22  102.39   18.30
   4  -1 -22   33.70   13.90
   4  -1 -22   38.60    6.10
  -4   1 -22   24.80   11.60
  -4   1 -22   17.60   16.10
  -4  -1  22   51.39   17.50
   4  -1 -22    5.20   13.90
   4   1 -22   39.00   13.00
   4   1 -22   16.70   16.40
  -4   1  22   56.89   19.20
   4   1 -22   46.00   11.70
  -4  -1 -22   29.70   14.20
  -4  -1 -22   29.10   12.10
  -4   2 -22   35.30   18.20
   4  -2 -22   85.49    9.50
   4  -2 -22   52.29   19.00
  -4   2 -22   59.09   13.90
  -4  -2  22   57.69   18.10
   4  -2 -22   73.99   17.00
  -4  -2 -22   72.99   15.20
  -4   2  22   68.89   21.50
  -4  -2 -22   75.19   22.70
   4   2 -22   79.49   13.40
   4   2 -22   39.60   20.60
  -4  -2 -22   66.19   13.90
   4   2 -22   69.39   14.80
   4  -3 -22    8.40   12.80
   4  -3 -22   31.10    7.00
  -4   3 -22   12.70   11.30
  -4   3 -22   -9.00   12.50
  -4  -3  22  -14.80   12.20
   4  -3 -22  -22.80   14.50
   4   3 -22  -21.00   18.20
  -4  -3 -22   26.40   12.10
   4  -3  22   -1.10   11.20
  -4   3  22  -15.80   19.60
  -4  -3 -22   16.90   12.40
  -4  -3 -22    3.60   18.70
   4   3 -22   35.70   12.00
  -4  -4  22   73.19   20.50
   4  -4 -22   77.69   17.80
   4  -4 -22   15.00   19.80
   4  -4 -22  109.39   12.10
  -4   4 -22   50.49   18.70
  -4   4 -22   50.09   13.00
  -4  -4 -22   98.49   18.70
  -4  -4 -22  127.89   16.60
   4  -4  22  107.69   16.20
   4   4 -22   84.89   30.40
  -4  -4 -22   71.09   26.00
  -4   5 -22   14.70    9.90
   4  -5 -22  -41.90   16.40
   4  -5 -22   -1.90   13.00
  -4  -5  22    5.10   19.50
   4  -5 -22   18.70    8.50
  -4   5 -22   -3.00   16.80
  -4  -5 -22    9.00   10.90
  -4  -5 -22   10.10   13.50
  -4  -5 -22    6.00   19.70
   4   5 -22  -35.40   21.70
   4  -5  22   17.50   11.10
  -4   6 -22  126.39   35.90
  -4  -6  22   66.49   22.30
  -4   6 -22   69.19   27.10
   4  -6 -22   50.59   15.80
   4  -6 -22  -11.80   21.30
   4  -6 -22   94.39   13.70
  -4  -6 -22   77.19   19.90
   4  -6  22   59.59   13.00
  -4  -6 -22   81.09   28.20
   4   6 -22    2.60   30.60
  -4  -7  22   28.90   22.40
   4  -7 -22    0.60   10.60
  -4   7 -22   38.00   32.10
  -4   7 -22   12.80   28.00
   4  -7 -22   -4.30   13.70
   4  -7 -22  -56.49   19.70
  -4  -7 -22   16.40   12.60
   4   7 -22  -61.09   30.60
  -4  -7 -22   14.30   27.00
   4  -7  22   21.80   13.10
  -5   0  22   28.90   19.80
  -5   0 -22   10.60   13.30
   5   0 -22   27.70   13.80
  -5   0 -22   10.50   10.50
   5   0 -22   22.00   12.60
  -5   1 -22   10.40   10.10
  -5   1 -22    1.80   16.30
   5  -1 -22   18.90   11.90
   5  -1 -22   -1.30   12.20
  -5  -1  22   14.80   16.60
  -5  -1 -22   23.90   12.40
  -5   1  22   12.80   17.40
  -5  -1 -22    8.00   10.70
   5   1 -22   10.10   11.50
   5   1 -22  -23.60   14.80
   5   1 -22   11.50   11.30
   5  -2 -22   29.60   13.10
  -5   2 -22   11.30   10.50
  -5   2 -22   11.80   17.70
  -5  -2  22   29.80   19.20
   5  -2 -22   11.20   16.10
   5   2 -22   21.90   11.30
  -5  -2 -22   23.50   12.10
   5   2 -22  -16.00   16.60
  -5  -2 -22   27.70   13.50
  -5   2  22   11.10   19.40
   5  -3 -22    5.20   11.80
  -5  -3  22   -6.40   14.20
   5  -3 -22    2.80   17.50
  -5   3 -22   -4.40   15.90
  -5   3 -22   17.70   10.50
  -5  -3 -22   18.40   20.20
  -5   3  22  -17.60   18.10
  -5  -3 -22    8.30   12.00
   5   3 -22  -25.80   19.20
  -5  -3 -22   14.80   11.80
   5  -4 -22    6.40    7.10
   5  -4 -22  -20.50   16.40
  -5   4 -22   13.10   10.10
  -5  -4  22   -7.80   14.40
  -5   4 -22   -5.10   15.50
   5  -4 -22   16.60   13.20
   5   4 -22  -18.20   23.80
  -5  -4 -22    6.70   12.00
  -5  -4 -22  -17.90   20.20
  -5  -4 -22    8.90   13.20
   5  -4  22    9.40   10.80
   5  -5 -22  -36.30   19.40
  -5   5 -22    7.50   16.80
   5  -5 -22    6.40   12.60
   5  -5 -22   12.60    8.30
  -5  -5  22    6.60   17.80
  -5  -5 -22    3.50   13.40
   5   5 -22  -32.90   26.50
  -5  -5 -22   13.60   12.10
  -5  -5 -22  -16.60   19.10
  -5   5  22  -36.20   20.20
   5  -5  22   -1.80   10.20
   5  -6 -22   13.20   10.10
  -5  -6  22    2.10   22.00
   5  -6 -22  -53.89   20.90
  -5   6 -22    2.50   22.60
   5  -6 -22   -0.70   12.00
   5   6 -22  -60.29   30.50
  -5  -6 -22    3.50   25.00
   5  -6  22    4.30   10.90
  -5  -6 -22    1.90   13.90
  -5  -7  22   10.80   20.60
   5  -7 -22  -22.60   21.90
  -5   7 -22   28.60   26.70
   5  -7 -22    6.10   14.30
   5  -7 -22   29.20   11.90
  -5   7 -22   67.69   34.30
   5   7 -22  -46.60   31.90
  -5  -7 -22   39.90   18.70
   5  -7  22   22.50   13.70
  -5  -7 -22   27.40   28.90
  -6   0 -22  176.98   22.30
   6   0 -22  177.08   25.00
  -6   0  22  197.98   31.70
  -6   0 -22  174.58   25.30
  -6   1 -22   26.00   18.90
  -6   1 -22   28.50   11.60
  -6  -1  22   16.80   19.50
   6  -1 -22   22.20   16.30
  -6  -1 -22   18.30   10.00
  -6   1  22   19.00   21.10
  -6  -1 -22   39.30   14.40
   6   1 -22   33.70   14.90
   6  -2 -22   46.80   18.20
  -6   2 -22  104.09   24.90
  -6  -2  22   62.49   23.10
  -6   2 -22   57.69   13.60
  -6  -2 -22   68.59   15.70
  -6   2  22   84.99   25.80
   6   2 -22   16.30   23.60
  -6  -2 -22   79.39   18.10
   6  -3 -22   -6.50   18.00
  -6   3 -22    1.70   10.00
  -6   3 -22   10.80   20.00
   6  -3 -22   12.70   12.50
  -6  -3  22   -2.40   17.40
  -6  -3 -22    4.00   12.40
   6   3 -22  -32.90   17.80
  -6  -3 -22   -1.20   13.10
  -6   3  22  -40.20   22.30
   6  -4 -22   74.09   22.40
  -6  -4  22   53.49   23.30
  -6   4 -22   22.10   17.70
  -6   4 -22   86.79   16.40
   6  -4  22   91.49   16.50
  -6  -4 -22   80.99   17.20
   6   4 -22   13.90   27.20
  -6  -4 -22   52.39   26.80
  -6  -4 -22   92.09   18.50
   6  -5 -22   -5.10   18.90
  -6   5 -22   34.00   21.10
  -6  -5  22   -7.20   19.60
  -6  -5 -22   12.80   26.60
  -6  -5 -22    0.80   13.70
  -6  -5 -22    9.90   15.60
   6  -5  22   13.30   14.70
   6   5 -22  -38.50   26.50
  -6   5  22  -67.09   23.80
   6  -6 -22   60.79   27.80
  -6   6 -22  107.69   30.30
  -6  -6  22   80.79   26.40
   6  -6  22   95.39   18.10
  -6  -6 -22  114.09   21.10
   6   6 -22   26.20   33.30
  -6  -6 -22   75.19   30.00
  -6  -6 -22  101.19   21.20
  -7   0 -22    4.40   11.60
   7   0 -22   17.70   16.00
  -7   0 -22   -2.70   15.20
  -7   0  22    7.70   24.80
  -7  -1  22    5.20   24.60
  -7   1 -22   14.30   11.60
   7  -1 -22   17.70   18.20
  -7   1 -22   19.00   19.90
  -7  -1 -22   24.30   17.10
  -7   1  22   -3.50   24.10
   7   1 -22   23.70   15.80
  -7  -1 -22    5.00   12.30
  -7   2 -22    5.70   18.30
  -7  -2  22    8.50   21.70
  -7   2 -22    5.80   10.70
   7  -2 -22   -9.20   18.00
  -7   2  22  -29.60   22.10
  -7  -2 -22   -1.60   12.10
  -7  -2 -22   11.40   15.80
  -7   3 -22   -9.00   21.30
   7  -3 -22   18.00   19.10
  -7   3 -22    8.20   12.30
  -7  -3  22    7.50   20.20
  -7   3  22  -31.60   22.10
  -7  -3 -22   -1.20   12.80
  -7  -3 -22   13.00   15.30
  -7  -4  22    0.10   19.50
   7  -4 -22   15.70   20.60
  -7   4 -22    8.20   21.50
  -7   4 -22   13.40   12.70
   7   4 -22  -50.39   25.60
  -7  -4 -22   11.20   14.20
  -7  -4 -22   19.80   16.30
  -7  -4 -22  -13.60   23.30
   7  -5 -22    8.50   21.40
  -7   5 -22   32.90   19.10
  -7  -5  22   10.00   18.30
   7  -5  22   16.50   15.10
   7   5 -22  -47.80   25.70
  -7  -5 -22   28.90   16.20
  -7  -5 -22   39.80   27.80
  -7  -5 -22   30.60   17.00
  -8   0 -22   44.50   19.00
   8   0 -22   28.30   18.40
  -8   0  22   15.70   26.30
  -8   0 -22   33.90   14.70
  -8   1 -22   -4.10   12.00
  -8  -1  22   -7.50   26.70
  -8   1 -22   -3.70   17.70
   8  -1 -22    3.00   16.70
  -8  -1 -22   -9.50   12.80
  -8  -1 -22    9.90   19.40
  -8   1  22  -33.00   26.90
  -8   2 -22  157.28   32.20
  -8   2 -22  116.99   19.70
   8  -2 -22  116.69   26.20
  -8  -2  22  157.48   34.10
  -8  -2 -22  125.39   22.80
  -8  -2 -22  125.29   22.00
  -8   2  22  110.39   37.60
  -8   3 -22   14.60   24.90
  -8  -3  22   -8.10   27.10
  -8   3 -22   10.10   13.50
   8  -3 -22    3.10   20.00
  -8  -3 -22    7.90   15.80
  -8  -3 -22    5.50   14.60
   8  -4 -22   35.50   23.40
   0   0 -23    3.60   10.20
   0   0 -23    6.70   10.20
   0   0 -23   20.20   13.80
   0   0 -23   11.10   11.80
   0   0  23    8.30   10.70
   0   1 -23    9.40   12.50
   0  -1 -23    1.40   10.10
   0   1 -23    1.00    9.20
   0   1 -23    2.40    8.80
   0   1 -23   -2.90   12.10
   0  -1 -23   -3.20    7.60
   0  -1 -23   -1.70   11.00
   0   1  23    4.00   12.30
   0  -1 -23    9.00   11.70
   0  -1  23   -0.70    9.50
   0   2 -23    2.60   15.10
   0   2 -23    5.40   11.50
   0  -2  23   -1.90    8.70
   0   2 -23   10.30    8.80
   0   2  23  -27.90   11.90
   0  -2 -23   16.70   11.40
   0  -2 -23    7.60   12.10
   0  -2 -23   15.60   12.20
   0  -2 -23    9.50    6.60
   0   2 -23   22.70   16.60
   0   3 -23    7.40   16.20
   0  -3 -23   -3.90   14.40
   0  -3 -23    0.50   10.10
   0   3 -23    2.40   16.40
   0  -3 -23   11.30    9.70
   0  -3  23   -5.80   10.70
   0   3 -23   -8.70    7.00
   0   3 -23    0.80   11.40
   0   4 -23   -3.80   17.80
   0  -4 -23    5.10   12.40
   0  -4  23   10.10    8.00
   0   4 -23  -19.60   12.10
   0  -4  23   -4.40   12.00
   0   4 -23    0.50   19.50
   0  -4 -23    9.80    9.80
   0  -4 -23    5.20   14.90
   0  -5  23   -6.60    7.30
   0  -5 -23   -4.70   12.90
   0  -5 -23    3.20   15.80
   0   5 -23   -8.30   22.50
   0  -5  23   -5.60   12.70
   0  -6 -23    3.60   15.20
   0  -6 -23  -29.30   11.70
   0  -6  23   12.20   14.20
   0   6 -23   30.80   33.00
   0  -6  23   15.70    8.70
   0  -6 -23    5.80   19.60
   0  -7  23   -1.10    8.50
   0  -7  23    1.00   15.00
   0   7 -23  -16.90   32.30
   0  -7 -23  -22.90   13.40
   0  -7 -23   -7.20   15.80
   0  -7 -23  -24.30   20.40
   0  -8 -23   -9.60   28.20
   0  -8 -23  -24.70   18.80
   0  -8  23    1.60    9.70
   0  -8 -23    1.70   15.10
   0  -8  23    6.00   17.00
   0   8 -23  -29.70   34.80
   1   0 -23  -13.50   13.30
  -1   0 -23   -3.20   11.70
  -1   0 -23   -3.40    9.90
   1   0 -23  -11.30   10.40
   1   0  23   -3.70    9.70
   1   0 -23  -10.00    9.40
   1   0 -23    0.80   11.70
  -1   0  23    8.70   11.80
  -1   0 -23   -1.50   10.00
   1  -1 -23   -2.30   12.00
  -1   1 -23    9.20   10.50
  -1   1 -23    3.50    9.40
  -1   1 -23   17.00   12.40
  -1  -1  23   14.90   12.10
   1  -1 -23    4.30    8.10
   1   1  23    6.20   11.60
   1  -1 -23   -1.30   10.80
   1  -1 -23   13.10   13.00
  -1   1 -23   11.70   13.10
   1   1 -23   -7.50   15.10
   1   1 -23    3.30   12.50
  -1  -1 -23    2.60   11.00
   1   1 -23    4.20    9.80
  -1  -1 -23   -4.50    9.90
  -1   1  23   26.60   15.10
  -1  -1 -23   12.70   12.30
   1   1 -23   -8.40   11.70
   1  -1  23   11.90   10.10
   1  -2 -23   32.70   14.70
   1  -2 -23   11.90   13.20
  -1   2 -23   11.50   11.20
  -1   2 -23   31.70   10.30
   1  -2 -23   15.90   12.70
  -1   2 -23   31.30   16.40
  -1   2 -23   35.30   17.50
  -1  -2  23   -1.10   10.40
   1   2 -23    8.60   12.60
   1   2 -23   -2.80    8.60
   1   2 -23   31.00   17.40
   1  -2  23    3.00    8.70
  -1   2  23   13.90   16.00
  -1  -2 -23   34.70   14.80
  -1  -2 -23   25.10   11.70
  -1  -2 -23   20.10   11.30
  -1  -3  23   28.40   13.40
  -1   3 -23   64.19   11.70
   1  -3 -23   71.89   17.50
   1  -3 -23   60.99   19.50
  -1   3 -23   61.09   18.40
  -1   3 -23   79.19   23.00
  -1   3 -23   58.39   15.80
  -1  -3 -23   39.10   12.60
  -1  -3 -23   68.59   17.30
   1  -3  23   43.40   13.40
  -1  -3 -23   41.90   14.30
   1   3 -23   79.49   24.40
   1  -4 -23   58.49   17.50
   1  -4 -23   53.09   19.10
  -1  -4  23   34.50   15.20
  -1  -4  23   63.99   10.80
  -1   4 -23   64.49   22.80
  -1   4 -23   46.10   14.40
  -1   4 -23   73.19   26.30
  -1  -4 -23   66.39   13.40
   1  -4  23   56.79   15.30
   1   4 -23   70.49   26.90
  -1  -4 -23   42.60   15.00
   1  -4  23   67.49   12.10
  -1  -4 -23   77.69   20.70
  -1   5 -23    5.50   13.00
   1  -5 -23   17.30   19.10
   1  -5 -23    4.40   11.80
   1  -5 -23   25.40   15.80
  -1   5 -23   41.20   21.50
  -1   5 -23   52.09   25.70
  -1  -5  23   31.20    8.60
  -1  -5  23   27.70   14.50
   1  -5  23   31.60   10.00
   1   5 -23   17.70   11.90
  -1  -5 -23   22.30   13.90
   1  -5  23   22.40   13.40
   1   5 -23   55.19   29.50
  -1  -5 -23   31.80   18.70
  -1  -6  23    5.20    8.10
  -1   6 -23   17.30   30.70
   1  -6 -23  -10.40   19.50
  -1   6 -23   -9.10   22.10
   1  -6 -23    4.60   10.80
   1  -6 -23  -15.00   14.50
  -1  -6  23   -0.70   15.20
   1  -6  23    9.00   13.00
  -1  -6 -23   20.40   20.60
   1   6 -23  -14.20   26.70
  -1  -6 -23  -31.30   11.70
   1  -6  23    2.80    8.60
  -1  -6 -23   12.90   14.40
  -1  -7  23   75.09   20.60
   1  -7 -23   44.20   14.10
   1  -7 -23   43.20   27.80
  -1  -7  23   64.79   11.70
   1  -7 -23   33.70   21.20
  -1   7 -23  118.09   43.60
  -1  -7 -23   85.79   28.50
  -1  -7 -23   49.20   17.20
  -1  -7 -23   71.39   19.70
   1  -7  23   47.00   15.80
   1   7 -23   55.39   37.70
   1  -7  23   70.49   12.60
   1  -8 -23   17.10   15.20
  -1  -8  23    3.20    8.90
   1  -8 -23  -30.80   25.10
  -1   8 -23   30.50   42.50
  -1  -8  23   -0.60   15.60
  -1  -8 -23  -13.10   13.70
  -1  -8 -23   -5.80   30.00
   1  -8  23    8.90   12.20
   1   8 -23  -28.50   40.00
  -1  -8 -23  -10.80   16.60
   1  -8  23   10.50   16.20
   2   0  23   -1.10    9.00
  -2   0  23   17.20   12.90
   2   0 -23  -27.20   11.40
  -2   0 -23  -21.40    8.00
  -2   0 -23  -14.20   10.90
  -2   0 -23   -5.30    9.40
   2   0 -23  -18.10    9.90
   2   0 -23   -8.00   10.40
  -2  -1  23   12.50   12.00
   2  -1 -23   -8.50   13.10
  -2   1 -23  -10.90    8.50
  -2   1 -23   -4.10    9.60
  -2   1 -23   -4.30   12.30
   2  -1 -23  -18.80    7.70
   2  -1 -23   -1.50   12.90
  -2   1  23   -2.00   12.90
  -2  -1 -23  -20.20    8.00
   2   1 -23   -7.00   12.10
  -2  -1 -23   -9.10   12.20
  -2  -1 -23  -14.60    9.20
   2  -1  23   10.60    8.80
  -2   2 -23   -9.90    8.70
   2  -2 -23    3.40   10.30
  -2  -2  23    1.40   10.50
  -2   2 -23    3.20    9.10
  -2   2 -23    1.40   12.20
   2  -2 -23  -14.50   12.50
  -2  -2 -23   14.80   13.10
  -2  -2 -23  -12.30    9.20
   2   2 -23    2.10   14.50
   2   2 -23  -21.00    7.10
  -2   2  23    0.40   14.70
   2  -2  23   -0.30    6.90
  -2  -2 -23  -13.50    8.70
  -2   3 -23   10.80    9.00
  -2  -3  23  -12.40   11.00
   2  -3 -23   -5.50   14.80
  -2   3 -23   -4.00   15.10
   2  -3 -23    2.00   10.60
  -2   3 -23   -8.00    9.00
  -2   3  23  -23.70   16.80
   2   3 -23  -11.60   10.80
  -2  -3 -23    4.40   13.50
   2  -3  23  -11.30    8.00
   2   3 -23   -7.70   18.10
  -2  -3 -23   -4.70    9.90
   2  -3  23    3.00    9.30
  -2  -3 -23  -16.90    9.10
  -2   4 -23   13.00   22.40
  -2   4 -23    1.10   17.60
   2  -4 -23   -8.10    8.80
  -2  -4  23   -4.40   14.70
   2  -4 -23  -11.90   16.60
   2  -4 -23  -16.40   13.50
  -2   4 -23    8.90   12.00
  -2  -4 -23   -1.50   10.40
   2   4 -23   -1.50   20.10
  -2  -4 -23    4.40   11.00
  -2  -4 -23    4.70   15.30
   2  -4  23   17.00   11.00
   2  -4  23   13.70    9.90
   2   4 -23    0.10   10.60
  -2   5 -23   18.80   23.80
  -2   5 -23  -12.10   19.60
  -2  -5  23   10.50    7.30
   2  -5 -23  -24.20   17.40
  -2   5 -23    1.80   11.80
   2  -5 -23  -29.10   13.00
  -2  -5  23    1.60   14.30
   2  -5 -23   -3.40    9.40
   2   5 -23  -14.40   23.20
   2   5 -23    2.90   10.70
   2  -5  23   -3.80    8.90
  -2  -5 -23   22.50   18.30
  -2  -5 -23   -4.50   11.50
   2  -5  23   -4.90   11.00
   2  -6 -23  -35.20   16.10
  -2   6 -23    0.60   25.50
  -2   6 -23   10.10   24.50
   2  -6 -23  -54.39   20.40
  -2  -6  23    6.50    8.30
   2  -6 -23    3.80   10.80
  -2  -6  23   12.90   15.10
   2   6 -23  -15.00   27.60
  -2  -6 -23    5.00   12.60
   2  -6  23   12.20   12.30
  -2  -6 -23    6.40   19.70
   2  -6  23    0.30    9.30
   2  -7 -23  -40.40   21.10
   2  -7 -23    4.00   10.70
  -2  -7  23   15.80   18.60
  -2   7 -23   29.90   33.20
  -2   7 -23  -19.60   24.20
  -2  -7 -23  -21.00   14.30
  -2  -7 -23   -1.60   24.20
  -2  -7 -23    1.20   14.10
   2  -7  23   -0.20    9.50
   2  -7  23    5.80   13.40
   2   7 -23  -49.99   34.60
  -2   8 -23    9.40   36.20
   2  -8 -23  -61.29   22.40
   2  -8 -23   27.70   14.20
  -2  -8  23   21.10   18.00
   2   8 -23  -35.80   36.20
  -2  -8 -23   28.60   29.90
  -2  -8 -23    6.10   15.10
   2  -8  23   17.50   15.90
  -2  -8 -23    2.30   19.20
   2  -8  23   13.10   11.30
   3   0 -23  -24.40   11.30
  -3   0 -23  -22.00    9.50
  -3   0  23    6.00   13.10
   3   0 -23  -21.20   10.90
  -3   0 -23   -9.30    9.50
  -3   0 -23   -8.80   11.80
   3  -1 -23    9.10   14.40
  -3   1 -23   32.30   12.20
  -3  -1  23   83.49   18.00
  -3   1 -23   17.80   13.80
   3  -1 -23  -11.70   13.60
  -3  -1 -23   40.00   11.70
   3   1 -23   65.79   18.80
  -3  -1 -23   40.00   13.40
   3   1 -23   33.10   11.90
  -3   1  23   89.99   19.30
  -3  -1 -23   45.70   16.40
   3   1 -23   25.60   14.10
  -3   2 -23   -0.10    8.80
  -3   2 -23   -6.00   12.00
   3  -2 -23  -19.90    9.00
   3  -2 -23   -5.50    6.70
  -3  -2  23    3.20   12.90
   3   2 -23    4.70   16.20
   3   2 -23    2.70   11.50
   3  -2  23   15.90    7.70
  -3   2  23   34.70   20.40
   3   2 -23    7.30    8.40
  -3  -2 -23    1.90    8.90
  -3  -2 -23   13.60   13.10
  -3  -2 -23    0.10   15.20
   3  -3 -23   -2.70    6.90
   3  -3 -23  -27.10   12.30
   3  -3 -23  -41.20   14.00
  -3   3 -23   -1.80   13.40
  -3  -3  23   -9.20   13.50
  -3   3 -23   -6.80    8.00
   3   3 -23  -20.00   17.60
  -3  -3 -23    2.50   11.60
  -3   3  23   -8.80   17.30
  -3  -3 -23   -3.90   15.20
   3  -3  23    4.80    8.50
   3   3 -23   -0.80   10.50
  -3  -3 -23  -12.00   11.00
   3  -4 -23    0.60    7.60
  -3  -4  23   -9.80   14.00
  -3   4 -23    1.60   10.90
  -3   4 -23   -4.10   15.00
   3   4 -23    1.80   10.30
  -3  -4 -23   -0.90   11.40
  -3  -4 -23   -0.70   10.90
   3  -4  23  -11.20    8.70
   3   4 -23  -17.20   22.30
  -3  -4 -23   -9.50   17.20
   3  -4  23    7.50    9.60
  -3   5 -23  163.28   27.60
  -3   5 -23  120.49   19.00
   3  -5 -23   47.80   25.20
  -3   5 -23  179.28   37.30
  -3  -5  23  126.29   26.40
   3  -5 -23  144.99   16.80
  -3  -5 -23   66.49   18.90
  -3  -5 -23  140.49   19.50
  -3  -5 -23  122.39   27.30
   3  -5  23  147.19   19.80
   3   5 -23   88.49   33.30
   3  -5  23  145.39   18.10
  -3  -6  23   28.40   18.20
  -3   6 -23   30.20   32.70
   3  -6 -23   24.50   10.50
  -3   6 -23   27.00   25.30
   3  -6 -23  -46.80   19.70
   3  -6 -23  -20.90   13.90
  -3  -6 -23   26.00   23.50
   3  -6  23   31.30   10.50
   3   6 -23  -30.10   28.40
   3  -6  23   18.70   12.30
  -3  -6 -23   11.40   12.10
  -3  -7  23   38.50   22.20
  -3   7 -23   47.20   28.00
  -3   7 -23   32.60   37.40
   3  -7 -23  -10.90   16.30
   3  -7 -23   26.60   12.20
  -3  -7 -23  -27.40   12.90
   3   7 -23  -34.20   32.20
   3  -7  23   31.50   13.00
  -3  -7 -23   56.79   28.30
  -3  -7 -23   23.70   14.50
   3  -7  23   40.40   14.90
   3  -8 -23    8.50   13.40
  -3  -8  23   17.60   19.10
  -3  -8 -23   11.50   34.20
   3  -8  23   -0.70   12.80
  -3  -8 -23  -31.70   14.50
  -4   0  23   13.30   15.00
   4   0 -23   -9.40   10.60
   4   0 -23  -21.20   12.30
  -4   0 -23   -5.70   10.10
   4   0 -23  -10.90    8.30
  -4   0 -23   -8.60   14.20
  -4  -1  23    9.70   16.80
  -4   1 -23   -8.00   13.10
   4  -1 -23   -3.30   12.80
   4  -1 -23  -25.60   13.40
  -4   1 -23   -4.30   10.20
   4  -1 -23    3.00    5.20
  -4  -1 -23    2.70   13.40
   4   1 -23  -20.50   14.00
   4   1 -23    5.80   12.00
  -4  -1 -23    7.30   11.40
   4   1 -23   -5.10   10.40
  -4   1  23   15.00   18.10
  -4  -2  23    5.70   14.70
   4  -2 -23    1.80    5.70
  -4   2 -23    7.50   10.30
   4  -2 -23  -16.00   12.60
  -4   2 -23  -23.00   11.40
   4   2 -23  -18.80   15.70
   4   2 -23    3.30   11.20
  -4  -2 -23    0.60   11.30
  -4  -2 -23   -0.10   15.30
   4   2 -23    3.50    9.80
  -4  -2 -23    8.30   12.60
  -4   2  23    1.00   17.40
   4  -3 -23    1.70    6.20
  -4   3 -23   -3.00    9.00
   4  -3 -23  -20.00   12.90
  -4  -3  23  -12.20   12.60
  -4   3 -23   -4.50   13.10
   4   3 -23  -23.50   16.40
  -4  -3 -23    3.40   16.30
  -4   3  23  -35.90   18.40
   4   3 -23   -0.20   10.80
  -4  -3 -23   -3.50   11.40
  -4  -3 -23   -5.20   11.90
  -4   4 -23    6.60    9.10
   4  -4 -23   -3.50   13.60
  -4   4 -23    2.20   15.80
   4  -4 -23   11.40    7.30
  -4  -4  23  -12.90   13.90
  -4  -4 -23    9.80   18.30
  -4  -4 -23   -5.30   11.90
  -4  -4 -23   -3.50   11.30
   4   4 -23  -25.00   23.00
   4  -4  23   -1.40    9.90
  -4   5 -23   17.50   21.00
  -4   5 -23   11.40   13.10
   4  -5 -23    8.80    8.80
  -4  -5  23    5.60   16.70
   4  -5 -23  -13.20   15.20
  -4  -5 -23   -2.20   13.30
  -4  -5 -23    7.60   12.60
   4  -5  23    3.40   10.00
  -4  -5 -23   16.00   21.30
   4   5 -23  -17.80   27.50
   4  -6 -23    4.30   10.00
  -4  -6  23    2.60   20.80
  -4   6 -23   27.90   27.80
   4  -6 -23   -5.80   13.30
  -4   6 -23   24.00   23.90
   4   6 -23  -49.99   27.50
  -4  -6 -23    8.50   13.50
  -4  -6 -23   45.60   27.50
   4  -6  23   13.40   12.10
   4  -7 -23   -0.10   11.30
  -4  -7  23  -11.00   18.50
   4  -7 -23   -1.70   13.40
  -4   7 -23   41.70   36.70
  -4   7 -23   -3.10   24.90
  -4  -7 -23   25.90   31.60
   4   7 -23  -59.19   31.30
  -4  -7 -23   39.50   14.20
   4  -7  23   -2.40   10.30
  -5   0 -23   -2.60   10.40
  -5   0 -23   -6.50   13.10
   5   0 -23   -4.80    8.80
  -5   0  23    9.70   16.80
   5   0 -23    3.90   12.70
  -5  -1  23   59.69   21.50
   5  -1 -23   30.20   16.60
   5  -1 -23   51.89   15.90
  -5   1 -23   44.90   17.90
  -5   1 -23   41.40   13.10
   5   1 -23   27.70   20.10
  -5  -1 -23   60.89   16.90
   5   1 -23   51.19   14.90
  -5   1  23   46.60   20.30
   5   1 -23   57.29   15.30
  -5  -1 -23   36.10   13.50
   5  -2 -23  -11.50   16.20
  -5  -2  23   21.80   19.10
  -5   2 -23   -1.90   15.50
  -5   2 -23   14.60   10.90
   5  -2 -23   13.30   13.70
   5   2 -23   -7.20   18.20
   5   2 -23   15.80   12.30
  -5   2  23    4.80   19.00
  -5  -2 -23    8.90   11.90
  -5  -2 -23   21.10   13.90
   5  -3 -23  100.59   25.30
  -5  -3  23   90.79   24.50
  -5   3 -23  162.38   20.90
   5  -3 -23  136.69   22.90
  -5  -3 -23  184.18   23.50
  -5  -3 -23  140.99   29.50
   5   3 -23  131.09   32.70
  -5   3  23  126.89   29.90
  -5  -3 -23  171.78   22.10
  -5  -4  23  -17.70   13.80
   5  -4 -23    9.70   15.40
  -5   4 -23  -26.50   15.50
  -5   4 -23   10.80   11.60
   5  -4 -23  -37.50   16.30
  -5  -4 -23    8.10   12.50
   5   4 -23  -43.50   22.90
  -5  -4 -23   -2.30   13.30
   5  -4  23   -0.30   12.80
  -5  -4 -23    2.80   19.40
  -5   4  23  -43.10   19.20
  -5  -5  23   11.70   18.50
   5  -5 -23  -43.20   18.50
  -5   5 -23    8.50   17.70
   5  -5 -23   14.30   15.70
   5  -5  23   10.40   13.40
  -5  -5 -23   10.40   15.90
  -5  -5 -23    8.70   21.70
   5   5 -23  -40.10   28.30
  -5  -5 -23   20.40   15.30
  -5  -6  23    0.30   19.60
  -5   6 -23   10.50   23.60
   5  -6 -23   12.30   10.70
   5  -6 -23    6.30   13.40
   5  -6 -23  -48.10   20.40
  -5  -6 -23   16.30   25.80
  -5  -6 -23   14.00   15.50
   5  -6  23    3.00   13.20
   5   6 -23  -50.29   32.20
   5  -7 -23   52.99   14.20
   5  -7 -23   -8.50   24.50
   5  -7  23   62.29   14.30
  -5  -7 -23   71.39   32.20
   6   0 -23    1.00   14.80
  -6   0 -23    9.40   14.60
  -6   0 -23    1.60   10.70
  -6   0  23    6.70   19.30
  -6  -1  23   10.10   18.50
  -6   1 -23    6.80   16.30
   6  -1 -23   -7.10   15.70
  -6   1 -23    3.80   10.60
  -6  -1 -23    3.30   13.30
  -6  -1 -23    0.90   11.20
   6   1 -23    1.70   13.20
  -6   1  23  -18.10   20.60
  -6  -2  23   -1.00   18.50
   6  -2 -23    2.20   12.90
  -6   2 -23    3.30   10.80
  -6   2 -23    6.30   17.60
   6  -2 -23    6.00   18.50
  -6  -2 -23   13.90   15.00
  -6  -2 -23    2.80   12.20
   6   2 -23  -40.50   19.40
  -6   2  23  -14.00   20.80
  -6   3 -23    8.50   11.00
   6  -3 -23  -17.20   16.60
   6  -3 -23    4.10   13.30
  -6   3 -23   -4.50   16.30
  -6  -3  23    8.80   19.00
  -6   3  23  -42.50   22.90
   6   3 -23  -26.30   21.80
  -6  -3 -23   10.10   14.50
  -6  -3 -23   -1.50   12.60
  -6   4 -23   10.40   12.50
  -6  -4  23  -14.50   17.90
   6  -4 -23    5.70   13.40
   6  -4 -23   -7.60   20.80
  -6   4 -23   -7.20   16.10
   6  -4  23   12.40   14.40
  -6   4  23  -58.79   19.70
  -6  -4 -23    7.50   22.30
  -6  -4 -23    8.30   14.10
   6   4 -23  -28.10   24.00
  -6  -4 -23    7.00   14.10
  -6  -5  23   -2.90   19.70
  -6   5 -23   10.50   20.90
   6  -5 -23  -43.20   21.40
  -6  -5 -23    2.60   13.90
   6  -5  23   16.30   14.50
  -6  -5 -23   -3.20   24.00
  -6  -5 -23    7.10   15.50
   6   5 -23  -42.60   27.60
  -6  -6  23   14.90   23.30
   6  -6 -23  -29.80   21.20
  -6   6 -23   26.50   25.50
  -6  -6 -23    5.00   25.60
   6   6 -23  -32.90   29.50
   6  -6  23   16.20   15.30
  -7   0  23   -1.50   21.20
   7   0 -23   -4.80   16.40
  -7   0 -23    9.30   12.30
  -7   0 -23    2.20   15.50
  -7   1 -23  117.49   24.00
  -7  -1  23  113.79   28.90
  -7   1 -23   82.09   17.20
   7  -1 -23  102.89   22.90
  -7  -1 -23  110.19   21.00
   7   1 -23  112.19   26.30
  -7  -1 -23   90.79   18.40
  -7   1  23  115.69   29.60
   7  -2 -23   -9.10   19.70
  -7   2 -23    5.30   11.30
  -7  -2  23   14.40   21.80
  -7   2 -23  -12.30   21.10
  -7   2  23  -16.50   22.80
  -7  -2 -23    3.80   13.00
  -7  -2 -23    1.60   16.80
  -7   3 -23   42.40   15.10
  -7   3 -23   43.30   25.90
   7  -3 -23   40.00   24.00
  -7  -3  23   49.00   24.50
  -7  -3 -23   37.60   17.80
   7   3 -23   -3.70   28.40
  -7  -3 -23   45.20   15.90
  -7   3  23   12.50   26.00
  -7  -4  23   30.90   22.30
  -7   4 -23   19.40   21.20
   7  -4 -23    1.20   22.90
  -7   4 -23   23.60   12.60
   7   4 -23  -36.60   27.70
  -7  -4 -23   36.50   17.60
  -7  -4 -23   14.00   26.00
  -7  -4 -23   11.20   14.50
   7  -5 -23   52.39   28.10
  -7  -5  23   45.50   22.00
  -7   5 -23   52.09   22.50
  -7   5  23  -57.39   29.00
   7  -5  23   81.59   17.00
  -7  -5 -23   42.10   28.30
  -7  -5 -23   89.29   20.00
   7   5 -23   23.40   32.00
  -8   0 -23   16.50   14.00
   8   0 -23   22.30   19.80
  -8   0  23    1.40   24.30
  -8   0 -23   10.40   20.90
  -8  -1  23  -24.20   22.70
  -8   1 -23    7.90   21.80
   8  -1 -23   -8.00   19.10
  -8   1 -23   -1.00   12.40
  -8  -1 -23   10.70   16.90
  -8  -1 -23   -3.30   13.60
  -8   1  23  -25.20   24.20
  -8   2 -23   21.90   21.20
   8  -2 -23    0.10   21.60
  -8  -2  23    7.30   24.70
  -8   2 -23   23.70   13.50
  -8  -2 -23   19.10   20.10
  -8   2  23  -11.70   29.20
  -8  -2 -23   -0.10   11.00
  -8   3 -23   17.20   21.30
  -8  -3  23  -15.70   27.60
   8  -3 -23  -19.60   22.00
  -8  -3 -23    5.10   18.30
   0   0 -24  287.47   31.00
   0   0 -24  300.37   31.80
   0   0 -24  253.67   28.50
   0   0 -24  287.57   30.20
   0   0  24  306.47   31.00
   0   1 -24   -2.60   12.20
   0   1 -24    1.20   12.00
   0   1 -24   -0.40    9.50
   0  -1  24    4.40   10.50
   0  -1 -24   -1.70    8.20
   0   1  24   -2.60   12.20
   0  -1 -24   -3.50   11.40
   0   1 -24    0.70   11.80
   0  -1 -24    9.80   10.90
   0  -1 -24   10.90   11.70
   0  -2 -24    9.80   12.20
   0   2 -24   10.90   15.70
   0  -2 -24    7.20   12.00
   0   2 -24    8.10    9.10
   0   2  24  -21.60   12.00
   0   2 -24    3.90   11.90
   0   2 -24   26.40   15.80
   0  -2  24   -2.90    9.10
   0  -2 -24    8.60   11.60
   0  -3  24   -2.60   11.20
   0   3 -24    6.40   16.30
   0   3 -24  -14.10   18.10
   0  -3 -24   10.50   12.50
   0   3 -24    5.70   13.90
   0  -3 -24   -4.40   10.10
   0  -3 -24    1.20   13.80
   0  -4  24   67.29   17.20
   0  -4 -24   72.69   20.50
   0  -4 -24   89.09   14.40
   0  -4  24   72.19   12.40
   0  -4 -24   55.69   17.00
   0   4 -24   94.69   28.30
   0   4 -24   80.29   26.00
   0   4 -24   23.60   14.50
   0  -5 -24   -6.30   13.10
   0  -5  24   -6.70   13.20
   0  -5  24   -1.10    8.50
   0  -5 -24   -4.00   17.70
   0   5 -24   -5.00   23.00
   0  -6 -24   98.09   28.10
   0  -6 -24  101.09   21.30
   0  -6 -24   57.79   16.60
   0  -6  24   94.49   13.80
   0  -6  24   81.39   18.40
   0   6 -24  115.59   36.60
   0  -7 -24  -15.60   17.50
   0   7 -24    9.50   36.60
   0  -7  24    1.90    9.80
   0  -7  24   -0.60   15.60
   0  -7 -24  -18.40   21.20
   0  -7 -24  -11.40   14.90
   0  -8 -24   -2.20   25.90
   0  -8 -24   -5.00   20.30
   0  -8  24   21.00   10.60
   0   8 -24   -1.60   36.50
   0  -8  24   23.10   18.20
   0  -8 -24    2.50   16.00
   1   0 -24    2.70   14.80
  -1   0  24   33.70   13.70
   1   0 -24   17.30   14.00
  -1   0 -24   18.50   13.50
  -1   0 -24   19.20   11.80
  -1   0 -24   12.40   11.40
   1   0 -24   10.90   10.90
   1   0  24   15.50   11.00
   1   0 -24    6.40   11.40
  -1   0 -24   12.50   10.70
  -1   1 -24   -3.40   10.10
   1  -1 -24    0.10   12.90
   1  -1 -24    7.50   12.60
  -1   1 -24    6.00   13.40
   1  -1 -24   -4.20    8.30
   1   1  24   -4.50    9.80
  -1   1 -24   10.10   12.50
   1  -1 -24    5.00   13.40
  -1  -1  24    4.90   10.50
  -1   1 -24    2.00    9.20
  -1  -1 -24    1.50   10.30
   1   1 -24   -3.20   10.10
  -1  -1 -24   -2.40   10.30
  -1   1  24   10.10   13.50
   1  -1  24    6.40    9.30
  -1  -1 -24   -0.20   11.80
   1   1 -24  -15.40   16.30
   1   1 -24    0.20   12.50
   1   1 -24   -4.30   11.20
  -1   2 -24    9.60   11.60
  -1   2 -24    5.60   15.40
  -1   2 -24    5.10    8.90
   1  -2 -24   -9.40   14.10
  -1   2 -24    5.60   15.60
   1  -2 -24   -4.70   12.70
  -1  -2  24  -10.70   10.60
   1   2 -24  -11.50   13.80
  -1   2  24  -17.70   14.00
  -1  -2 -24    4.40   10.90
   1  -2  24   -3.00    8.50
   1   2 -24    4.60   15.00
  -1  -2 -24    1.70   13.20
  -1  -2 -24    7.80   10.90
   1   2 -24  -12.70    8.40
  -1   3 -24   11.00    8.50
  -1  -3  24   -4.30   10.70
   1  -3 -24    5.50   13.90
  -1   3 -24   18.80   12.00
  -1   3 -24   19.00   19.20
  -1   3 -24   20.50   18.10
   1  -3 -24   -3.20   14.50
   1  -3  24    4.60   10.10
   1   3 -24  -14.00   11.60
  -1  -3 -24   15.20   13.80
  -1  -3 -24    8.20   10.90
  -1   3  24  -34.80   12.40
  -1  -3 -24    1.90   11.40
   1   3 -24    0.60   18.30
   1  -4 -24   11.20   14.40
   1  -4 -24   -2.60   16.40
  -1  -4  24   -2.20   14.50
  -1   4 -24   15.80   20.40
  -1   4 -24   24.00   18.30
  -1   4 -24   -9.00   12.90
  -1  -4 -24    2.80   12.30
  -1  -4 -24   10.70   10.60
   1  -4  24    5.70   12.00
   1   4 -24    8.30   20.50
   1  -4  24    1.40    9.20
  -1  -4 -24   12.50   15.30
  -1   5 -24   13.90   23.80
  -1   5 -24  -11.20   12.40
  -1  -5  24   15.40    8.00
  -1   5 -24   21.00   24.10
  -1  -5  24    7.10   14.30
   1  -5 -24  -20.80   11.40
   1  -5 -24   -1.30   19.20
   1  -5 -24   -0.60   14.90
   1   5 -24    6.30   24.10
   1  -5  24   13.00   12.90
   1   5 -24  -13.60   11.50
  -1  -5 -24   -6.00   16.10
  -1  -5 -24   13.90   13.50
   1  -5  24   12.80    9.30
  -1   6 -24    2.30   27.20
   1  -6 -24  -17.70   12.30
   1  -6 -24   -2.20   15.80
  -1   6 -24  -23.60   22.60
  -1  -6  24   10.30    7.90
   1  -6 -24   -6.70   21.80
  -1  -6  24    1.70   16.10
   1  -6  24    5.40    9.50
  -1  -6 -24  -47.30   11.80
  -1  -6 -24   12.50   20.30
  -1  -6 -24    2.60   14.70
   1   6 -24  -10.00   30.00
   1  -6  24    1.80   13.10
  -1  -7  24    8.60    8.50
   1  -7 -24   -9.00   16.50
  -1  -7  24    3.50   17.40
   1  -7 -24    0.50   13.60
  -1   7 -24   12.60   32.70
   1  -7 -24  -21.00   20.90
   1   7 -24  -22.90   35.30
  -1  -7 -24    6.70   15.80
   1  -7  24   18.70   10.80
   1  -7  24   10.20   14.80
  -1  -7 -24  -27.60   15.30
  -1  -7 -24   -0.80   22.80
  -1  -8  24    4.80   18.60
  -1   8 -24  -20.70   35.90
   1  -8 -24  -18.60   26.10
   1  -8 -24   -4.20   15.30
   1   8 -24  -70.19   38.40
  -1  -8 -24  -13.80   19.80
   1  -8  24   -1.70   12.70
   1  -8  24   11.20   16.90
  -1  -8 -24  -11.10   26.20
  -1  -8 -24  -37.00   15.00
   2   0 -24  -10.60   13.30
  -2   0 -24   -1.60   10.60
  -2   0  24    9.80   14.30
  -2   0 -24   -5.80    9.50
  -2   0 -24    0.50   11.70
   2   0 -24  -12.80   11.30
   2   0  24    5.20    9.10
   2   0 -24    3.00   11.70
   2  -1 -24   18.80   12.30
   2   1  24   -8.90    8.40
   2  -1 -24   13.50   14.90
  -2  -1  24   29.10   13.50
  -2   1 -24    1.70   10.20
  -2   1 -24    4.50   10.60
  -2   1 -24   20.10   13.80
  -2  -1 -24   -5.60    9.90
   2   1 -24   15.60   14.40
  -2   1  24   24.70   16.40
   2  -1  24   15.60    9.10
  -2  -1 -24   -6.20   10.80
  -2  -1 -24   32.60   13.70
   2   1 -24  -18.70   12.30
   2   1 -24  -18.40    9.70
  -2   2 -24  101.39   17.50
   2  -2 -24  124.69   22.30
  -2   2 -24  133.19   21.60
   2  -2 -24  141.99   24.00
  -2   2 -24  102.39   17.60
  -2  -2  24  102.79   20.90
  -2  -2 -24   62.99   16.00
  -2  -2 -24  141.49   22.00
   2   2 -24  151.48   24.90
  -2  -2 -24   42.90   15.70
  -2   2  24  207.58   29.00
   2  -2  24   80.39   14.60
   2  -3 -24   -9.40   14.10
  -2   3 -24   11.30   18.40
  -2   3 -24    1.90   16.30
  -2  -3  24  -12.20   12.40
  -2   3 -24    9.50    9.20
   2  -3 -24  -21.80   14.70
  -2   3 -24   -3.70   11.40
  -2   3  24  -28.20   15.00
  -2  -3 -24    2.30    9.50
  -2  -3 -24    4.80   14.00
   2  -3  24   -1.90    8.90
   2   3 -24  -13.40   18.20
   2   3 -24  -28.00   10.50
  -2  -3 -24   -9.80    7.70
  -2   4 -24   55.89   19.40
   2  -4 -24   13.80   21.00
   2  -4 -24   39.80   18.00
  -2   4 -24   61.59   15.20
   2  -4 -24   22.70   11.20
  -2  -4  24   38.00   17.00
  -2   4 -24   60.69   26.70
   2  -4  24   52.59   13.40
   2  -4  24   55.99   12.50
  -2  -4 -24   22.80   13.60
   2   4 -24   36.50   25.60
   2   4 -24   40.60   15.80
  -2  -4 -24   54.99   19.10
  -2  -4 -24   29.70   11.50
  -2  -5  24  -10.90   16.10
  -2   5 -24    3.10   19.10
   2  -5 -24  -18.90   14.40
   2  -5 -24  -32.30   18.00
  -2  -5  24    3.60    7.50
  -2   5 -24   -8.20   11.90
   2  -5 -24  -10.30   10.00
  -2   5 -24   11.60   22.70
  -2  -5 -24    0.60   12.20
   2  -5  24    7.80    9.90
   2  -5  24    1.70   11.30
   2   5 -24  -23.50   26.30
  -2  -5 -24    5.00   17.90
   2   5 -24    5.80   12.30
   2  -6 -24   -6.50   20.70
  -2   6 -24   39.80   32.00
  -2  -6  24   26.50   17.20
   2  -6 -24    3.20   19.20
   2  -6 -24   25.10   12.20
  -2   6 -24   45.20   24.30
  -2  -6 -24   28.50   24.20
   2  -6  24   27.60   13.90
  -2  -6 -24   28.20   15.20
   2  -6  24   34.80   11.10
   2   6 -24   18.60   33.60
   2  -7 -24  -27.20   15.40
  -2  -7  24    5.60   16.80
  -2   7 -24  -28.40   26.90
  -2   7 -24   25.90   32.90
   2  -7 -24  -33.70   25.10
   2  -7 -24   17.20   14.00
   2  -7  24   18.60   10.90
   2  -7  24    4.80   14.20
   2   7 -24   -3.70   38.00
  -2  -7 -24    4.20   24.00
  -2  -7 -24  -35.20   15.30
  -2  -7 -24   25.00   18.40
   2  -8 -24  -13.70   30.60
  -2   8 -24  100.89   46.20
  -2  -8  24   77.79   24.40
   2  -8 -24   62.39   17.10
   2  -8  24   60.39   19.40
  -2  -8 -24   33.20   18.70
   2  -8  24   78.49   14.80
   2   8 -24   34.70   41.40
  -2  -8 -24   96.19   34.10
  -3   0  24    6.90   13.80
  -3   0 -24  -25.20   11.20
   3   0 -24  -21.00   12.10
  -3   0 -24   -4.20   12.10
  -3   0 -24  -16.40    9.10
  -3  -1  24   12.70   14.40
   3  -1 -24  -27.40   12.90
  -3   1 -24    2.80   14.60
  -3   1 -24   -5.10    9.40
  -3   1 -24  -13.30   12.10
  -3  -1 -24   -6.40   12.30
   3   1 -24  -27.00   12.10
  -3   1  24   15.20   15.50
   3   1 -24   -8.20   14.50
  -3  -1 -24   -5.00   13.00
  -3  -1 -24   -8.00   10.50
   3  -2 -24   -6.80   15.10
  -3   2 -24   -1.80   12.70
  -3  -2  24    3.20   13.20
   3  -2 -24   -7.50    6.80
   3  -2 -24   -5.70   11.10
  -3   2 -24    4.00    9.30
  -3   2  24   13.70   17.30
  -3  -2 -24   24.70   14.30
   3   2 -24   -0.30   17.30
  -3  -2 -24    6.60   14.80
   3   2 -24    3.50   13.20
   3   2 -24    2.50    9.40
  -3  -2 -24   -6.60   10.90
   3  -3 -24   -8.50    7.40
  -3   3 -24   -8.60    8.90
  -3  -3  24  -16.40   11.30
  -3   3 -24   -2.10   14.20
   3   3 -24    1.90   12.00
   3  -3  24    3.60    8.30
  -3  -3 -24   -3.90   12.70
  -3  -3 -24  -19.20   10.10
   3   3 -24  -20.70   17.90
  -3  -3 -24   -0.70   15.40
  -3   3  24  -31.90   16.80
   3  -4 -24  -37.00   13.80
   3  -4 -24    4.90    8.50
  -3   4 -24    1.20    9.60
  -3  -4  24    2.70   16.90
   3  -4 -24  -37.30   16.00
  -3   4 -24    8.00   16.10
   3  -4  24   -7.20   10.60
  -3  -4 -24   11.60   19.30
  -3  -4 -24    4.60   12.80
   3   4 -24  -33.00   21.70
   3   4 -24    4.30   11.40
   3  -4  24    5.70   11.10
  -3  -4 -24  -16.80   10.60
  -3   5 -24   12.90   18.90
  -3  -5  24    6.50   16.60
   3  -5 -24    7.50    9.60
  -3   5 -24   44.80   29.00
  -3   5 -24   12.40   12.60
   3  -5 -24  -35.30   19.30
   3  -5  24    2.30   10.90
  -3  -5 -24   16.10   19.60
   3   5 -24  -22.60   23.90
  -3  -5 -24   -3.60   11.20
   3  -5  24   11.50   12.00
  -3  -5 -24   18.00   14.80
   3  -6 -24   -2.60   10.60
  -3  -6  24  -10.10   16.60
   3  -6 -24  -40.00   13.80
  -3   6 -24   11.20   23.50
  -3   6 -24   22.50   32.20
   3   6 -24  -31.30   28.40
   3  -6  24   -6.80   10.30
  -3  -6 -24   21.00   13.00
  -3  -6 -24   13.50   21.70
   3  -7 -24  -43.40   22.90
   3  -7 -24   -3.10   11.60
  -3   7 -24   -2.00   26.90
  -3  -7  24    6.20   18.30
   3  -7 -24  -37.20   16.60
  -3   7 -24   12.10   32.10
  -3  -7 -24   -5.10   25.30
   3   7 -24  -57.19   32.20
   3  -7  24   -2.80   11.70
  -3  -7 -24  -43.60   12.20
  -3  -7 -24   17.50   14.80
   4   0 -24   42.50   16.80
  -4   0 -24   52.19   14.90
   4   0 -24   72.79   20.00
  -4   0 -24   71.99   20.00
  -4   0  24  105.29   22.80
   4   0 -24   43.40   15.90
   4  -1 -24  -35.80   14.40
  -4   1 -24   13.70   11.80
   4  -1 -24    0.30   14.00
  -4  -1  24   40.40   19.20
  -4   1 -24   20.60   16.80
   4   1 -24   15.00   13.90
  -4  -1 -24   24.20   16.40
   4   1 -24    5.60   17.00
  -4  -1 -24   11.70   12.40
  -4   1  24   25.90   17.60
  -4  -1 -24   17.90   18.10
   4   1 -24   22.90   12.00
   4  -2 -24   55.09    8.40
  -4  -2  24   46.20   18.10
  -4   2 -24   40.50   13.50
   4  -2 -24   29.00   16.90
  -4   2 -24   10.60   16.00
  -4  -2 -24   25.30   18.50
   4   2 -24   57.19   15.70
  -4  -2 -24   44.40   15.10
  -4   2  24   59.99   23.80
  -4  -2 -24   54.79   16.60
   4   2 -24   25.00   21.20
  -4  -3  24  -17.70   12.90
   4  -3 -24   -8.60   14.50
   4  -3 -24   14.90    7.20
  -4   3 -24   12.20   15.00
  -4   3 -24   10.10    9.80
  -4  -3 -24   16.50   13.20
   4   3 -24   21.60   13.00
   4   3 -24  -35.20   18.90
  -4   3  24  -15.60   18.70
  -4  -3 -24    4.70   13.00
  -4  -3 -24   -2.70   16.70
  -4  -4  24   29.00   19.70
   4  -4 -24   34.10   18.00
   4  -4 -24   75.29   11.00
  -4   4 -24   66.69   21.90
   4  -4 -24  -20.70   19.50
  -4   4 -24   32.70   12.30
  -4  -4 -24   66.69   18.00
   4  -4  24   93.89   16.30
   4   4 -24   64.69   29.70
  -4  -4 -24   58.49   22.60
  -4  -4 -24   92.09   17.90
  -4   4  24    4.80   23.10
  -4  -5  24    6.40   18.00
  -4   5 -24    8.40   21.10
   4  -5 -24   -8.40   14.70
   4  -5 -24   12.80    9.60
   4   5 -24  -26.70   28.20
  -4  -5 -24   -2.00   23.00
   4  -5  24    3.00   12.00
  -4  -5 -24    7.90   14.00
  -4  -5 -24   21.10   13.50
   4  -6 -24   64.69   13.50
  -4   6 -24   58.19   23.90
  -4  -6  24   40.60   21.70
  -4   6 -24  101.49   33.40
   4  -6 -24   24.40   17.00
  -4  -6 -24   37.40   16.00
   4  -6  24   56.39   15.00
  -4  -6 -24   67.99   30.50
   4   6 -24   34.00   34.10
   4  -7 -24  -17.30   16.50
   4  -7 -24   11.30   12.20
  -4   7 -24   10.40   27.10
  -4  -7  24    9.40   20.30
  -4   7 -24   13.80   31.70
  -4  -7 -24   12.00   27.70
   4   7 -24  -65.99   31.40
  -4  -7 -24   30.60   13.90
   4  -7  24    3.40   13.00
  -5   0  24   16.50   17.90
   5   0 -24   21.90   14.80
  -5   0 -24   22.00   12.80
   5   0 -24   11.20   14.60
  -5   0 -24   14.00   17.60
  -5   1 -24    9.80   11.60
  -5   1 -24    0.20   15.80
   5  -1 -24  -22.70   15.10
  -5  -1  24    3.20   18.80
   5  -1 -24   -2.40   13.20
  -5   1  24   -5.50   18.90
   5   1 -24   -2.70   11.90
   5   1 -24    8.20   13.40
  -5  -1 -24   -0.60   11.50
  -5  -1 -24    1.00   15.50
   5   1 -24  -23.10   17.80
  -5   2 -24   -3.90   17.40
   5  -2 -24    4.70   14.20
  -5  -2  24    5.00   19.20
  -5   2 -24    1.40   11.20
   5  -2 -24  -22.60   15.00
   5   2 -24   10.10   13.30
  -5   2  24    1.90   21.70
  -5  -2 -24    6.30   20.00
   5   2 -24  -25.50   19.30
  -5  -2 -24   -4.70   13.60
  -5  -2 -24   16.90   13.40
  -5  -3  24    3.60   16.90
   5  -3 -24  -24.30   17.50
  -5   3 -24   11.00   11.20
  -5   3 -24  -11.90   16.00
   5  -3 -24    3.50   14.40
  -5  -3 -24   29.00   14.30
   5   3 -24  -14.60   22.40
  -5  -3 -24   13.20   13.80
  -5   3  24    0.30   23.70
  -5  -3 -24    5.30   20.20
  -5   4 -24    4.50   19.00
  -5   4 -24   20.60   11.70
   5  -4 -24  -46.90   17.30
   5  -4 -24   -4.40   14.90
  -5  -4  24  -13.40   15.00
   5  -4  24   23.90   12.50
  -5  -4 -24    4.10   15.20
   5   4 -24  -28.20   24.50
  -5  -4 -24   14.60   15.20
  -5   4  24  -30.40   20.70
  -5  -4 -24    8.30   20.30
  -5   5 -24    0.20   18.10
  -5  -5  24  -17.80   18.10
   5  -5 -24  -10.10   14.10
   5  -5  24    5.40   13.10
   5   5 -24  -29.60   29.50
  -5  -5 -24   -0.80   14.50
  -5  -5 -24   12.40   12.90
  -5  -5 -24   -0.80   21.90
  -5  -6  24  -10.60   19.30
   5  -6 -24   -6.40   14.30
  -5   6 -24    5.90   23.70
   5  -6  24   13.20   12.10
   5   6 -24  -27.60   34.10
  -5  -6 -24   20.80   16.20
  -5  -6 -24   28.30   26.50
  -6   0  24  115.99   28.50
  -6   0 -24  129.89   25.50
   6   0 -24  112.99   22.40
  -6   0 -24   82.99   17.40
  -6   1 -24   18.40   13.50
   6  -1 -24   23.70   14.90
  -6  -1  24   36.70   23.50
   6  -1 -24    3.10   15.50
  -6   1 -24   29.00   18.40
  -6  -1 -24   17.00   12.90
  -6   1  24   21.10   20.90
  -6  -1 -24   27.70   17.10
   6   1 -24   20.10   16.00
  -6  -2  24   33.00   21.50
   6  -2 -24   44.20   16.60
   6  -2 -24   16.60   20.80
  -6   2 -24   47.60   13.90
  -6   2 -24   37.60   22.60
  -6   2  24   26.60   23.20
  -6  -2 -24   54.59   17.70
  -6  -2 -24   30.30   12.40
   6   2 -24   -0.70   24.60
   6  -3 -24  -23.50   17.10
   6  -3 -24    2.90   14.50
  -6  -3  24   10.30   19.50
  -6   3 -24   -1.00   11.00
  -6   3 -24    2.50   17.50
  -6   3  24  -24.80   21.60
  -6  -3 -24   -1.80   14.80
  -6  -3 -24   -3.00   22.20
   6   3 -24  -17.30   23.20
  -6  -3 -24    3.50   13.50
   6  -4 -24   -6.20   20.20
   6  -4 -24   69.09   18.50
  -6   4 -24   11.10   20.00
  -6   4 -24   45.00   14.80
  -6  -4  24   39.00   23.40
  -6  -4 -24   71.79   18.40
   6   4 -24   21.40   28.40
  -6  -4 -24   50.49   17.00
  -6   4  24  -24.60   22.80
  -6  -4 -24   53.09   26.00
  -6  -5  24    3.40   20.50
   6  -5 -24  -27.80   20.70
  -6   5 -24   23.00   23.00
  -6  -5 -24    2.40   25.00
  -6  -5 -24   12.50   14.90
   6   5 -24  -43.20   27.60
   6  -5  24   15.30   13.60
  -6  -5 -24   14.30   16.00
  -7   0  24    1.20   25.20
  -7   0 -24   -0.20   12.40
  -7   0 -24   26.30   21.00
   7   0 -24    0.50   16.90
   7  -1 -24    8.40   18.70
  -7   1 -24    5.20   11.80
  -7  -1  24    0.40   21.10
  -7   1 -24   37.00   23.20
  -7  -1 -24   12.20   13.10
  -7  -1 -24   20.60   16.20
  -7   1  24   -2.40   24.80
  -7  -2  24   -1.80   24.90
  -7   2 -24   13.70   12.50
   7  -2 -24  -10.20   17.60
  -7   2 -24   -2.20   19.10
  -7  -2 -24   10.00   14.10
  -7  -2 -24   15.00   17.60
  -7   2  24   -6.00   26.70
  -7   3 -24   36.70   21.80
  -7  -3  24   12.70   22.40
  -7   3 -24    1.80   13.50
   7  -3 -24  -26.30   21.30
  -7  -3 -24    2.70   16.80
  -7   3  24  -44.40   26.40
  -7  -3 -24   12.20   14.60
   7   3 -24  -51.49   26.00
  -7  -4  24   -4.40   20.70
  -7   4 -24   11.50   16.70
  -7   4 -24   18.70   14.50
   7  -4 -24  -25.20   23.60
  -7   4  24  -66.99   26.60
  -7  -4 -24   -4.20   14.80
   7   4 -24   -8.50   30.30
  -7  -4 -24   15.20   17.30
  -7  -4 -24  -12.40   24.90
   8   0 -24   10.00   20.10
  -8   0  24   15.70   26.00
  -8   0 -24    7.80   14.40
  -8   0 -24   38.80   22.30
   8  -1 -24  -11.90   17.80
  -8  -1  24  -23.10   26.30
  -8   1 -24   19.40   20.30
  -8   1 -24    3.70   12.90
  -8   1  24  -19.60   24.50
  -8  -1 -24   11.00   14.70
  -8  -1 -24    0.10   20.20
   8  -2 -24   71.99   27.90
  -8  -2  24  108.19   34.90
  -8   2 -24  138.09   34.10
  -8   2  24   82.19   33.10
  -8  -2 -24  121.99   26.00
   0   0 -25   14.20   13.80
   0   0 -25   13.60   12.50
   0   0 -25   16.30   10.50
   0   0  25    6.10   11.30
   0   0 -25    9.50   11.40
   0   1 -25    3.00   12.50
   0   1  25   -2.50   13.10
   0   1 -25   -0.10   14.90
   0   1 -25   -0.30    9.20
   0  -1 -25   -1.00    8.70
   0  -1 -25    5.90   12.20
   0  -1 -25    2.20    9.20
   0  -1  25    7.60   10.90
   0   1 -25    8.70   13.40
   0  -1 -25    5.10   10.70
   0   2 -25   40.60   17.90
   0   2 -25   56.19   20.10
   0  -2 -25   23.50   12.90
   0   2 -25   19.50   10.40
   0   2  25   -5.60   13.70
   0  -2  25    7.70   11.30
   0  -2 -25   25.90   13.90
   0  -2 -25   27.90   15.20
   0   2 -25   20.70   13.60
   0   3 -25   -4.40   16.80
   0   3 -25   -8.20   12.20
   0  -3 -25    1.00   10.80
   0  -3  25   -3.80   11.00
   0   3  25  -31.00   12.80
   0  -3 -25   -8.00   13.50
   0  -3 -25    4.10   13.00
   0   3 -25   -3.30   18.10
   0  -4  25    6.00    8.80
   0  -4 -25    8.50   13.70
   0   4 -25   -8.20   12.40
   0   4 -25   14.50   20.20
   0  -4 -25   19.30   18.30
   0   4 -25   19.00   23.60
   0  -4  25    7.50   12.30
   0  -5 -25  -13.30   16.00
   0  -5 -25    0.00   13.90
   0  -5  25    0.50   14.20
   0  -5  25   -1.40    9.00
   0   5 -25    3.80   27.70
   0   6 -25   44.80   34.80
   0  -6 -25   33.80   19.30
   0  -6  25   36.20   15.40
   0  -6  25   46.40   10.60
   0  -6 -25   33.10   21.70
   0  -6 -25    6.00   15.70
   0  -7 -25   -5.60   16.40
   0  -7  25  -10.40   15.40
   0   7 -25   -8.20   31.70
   0  -7 -25   -3.30   24.50
   0  -7 -25   -2.20   14.40
   0  -7  25    0.70    9.40
   0  -8 -25   -6.70   16.10
   0  -8 -25  -26.40   24.70
   0   8 -25  -14.60   40.00
   0  -8  25   -1.00   18.00
   0  -8  25   14.30   13.20
   1   0 -25  -13.90   15.00
  -1   0 -25   -1.90   12.90
  -1   0 -25    3.10   10.80
   1   0  25   -3.30   10.10
   1   0 -25    1.80   10.40
   1   0 -25    2.90   12.10
  -1   0 -25   -0.70   10.90
   1   0 -25   -7.20   10.10
  -1   0 -25    1.10   10.70
  -1   0  25   -6.90   12.20
   1  -1 -25  120.79   24.00
  -1   1 -25  133.29   23.00
  -1  -1  25  117.49   21.20
  -1   1 -25  124.89   20.50
   1  -1 -25  136.79   21.50
   1  -1 -25  104.29   20.50
  -1   1 -25  111.19   19.00
  -1   1 -25  131.19   18.40
   1   1  25  109.49   18.80
   1  -1 -25  109.59   20.80
   1  -1  25  107.89   17.60
  -1  -1 -25   86.29   18.10
   1   1 -25  102.09   20.90
  -1  -1 -25  100.59   16.80
  -1  -1 -25  109.29   18.80
   1   1 -25  109.09   22.80
  -1   1  25  103.79   20.00
   1   1 -25  130.79   21.50
  -1  -1 -25  105.29   18.90
   1   1 -25   99.39   17.50
  -1   2 -25   16.10   12.40
  -1  -2  25    0.80   10.80
  -1   2 -25   19.80   16.70
   1   2  25  -13.70   11.00
  -1   2 -25   18.20   16.80
   1  -2 -25    9.10   11.10
  -1   2 -25   17.30   10.10
   1  -2 -25    8.00   14.00
   1   2 -25   -4.60   13.30
  -1  -2 -25   10.80   13.10
   1   2 -25    7.40   16.10
  -1  -2 -25    8.70   12.30
  -1   2  25   -1.80   16.00
   1   2 -25   -4.60    9.60
  -1  -2 -25   22.20   12.90
   1  -2  25   13.20   10.10
  -1   3 -25  199.68   31.60
   1  -3 -25  159.68   23.50
   1  -3 -25  211.08   29.00
  -1   3 -25  199.78   29.10
  -1   3 -25  162.48   22.50
  -1  -3 -25  160.28   21.60
   1   3 -25  178.98   30.50
  -1  -3 -25  130.69   22.40
  -1  -3 -25  165.28   23.30
   1   3 -25   91.39   21.90
   1  -3  25   99.79   20.30
  -1  -4  25   24.90   16.40
  -1   4 -25   44.70   22.60
  -1   4 -25   27.50   13.40
   1  -4 -25   13.60   19.30
  -1   4 -25   37.00   22.20
   1  -4 -25   33.60   16.60
  -1  -4 -25   40.20   12.80
   1  -4  25   22.50   13.50
  -1  -4 -25   37.80   17.60
   1  -4  25   34.70   11.50
  -1  -4 -25   29.00   14.70
   1   4 -25   36.30   25.10
  -1  -5  25   57.89   19.70
  -1  -5  25   50.09   11.50
  -1   5 -25   53.79   23.50
   1  -5 -25   -1.20   12.90
   1  -5 -25   54.09   20.20
  -1   5 -25   72.29   28.30
  -1   5 -25   49.90   16.60
   1  -5 -25   75.79   23.00
  -1  -5 -25   88.49   24.00
   1  -5  25   66.29   17.10
   1   5 -25   11.60   13.20
  -1  -5 -25   64.89   17.20
   1  -5  25   74.19   12.90
   1   5 -25   73.09   32.30
   1  -6 -25    2.60   20.20
  -1   6 -25   22.20   31.80
   1  -6 -25  -10.60   18.40
  -1  -6  25   20.90   15.50
  -1  -6  25    9.90    8.90
  -1   6 -25  -18.80   26.70
   1  -6 -25   -9.20   13.80
   1  -6  25    7.50   10.10
   1   6 -25    3.60   28.20
  -1  -6 -25    1.20   14.90
   1  -6  25   10.80   14.40
  -1  -6 -25   27.40   21.50
  -1  -7  25   74.59   14.80
  -1  -7  25   63.19   21.40
   1  -7 -25   64.89   18.30
  -1   7 -25   80.69   40.90
   1  -7 -25   51.49   27.30
   1  -7 -25   57.39   21.60
   1  -7  25   61.69   19.00
   1   7 -25   44.40   36.70
  -1  -7 -25   85.29   28.40
   1  -7  25   66.69   13.90
  -1  -7 -25   28.20   19.10
  -1  -7 -25   87.39   22.60
   1  -8 -25  -10.00   15.40
   1  -8 -25  -36.80   25.90
  -1  -8 -25  -25.30   25.70
  -1  -8 -25  -15.30   17.80
   1  -8  25   10.80   14.90
  -2   0 -25   -4.30   10.50
   2   0 -25  -11.20   11.30
  -2   0 -25   -5.30   12.40
  -2   0 -25   -6.40   12.90
   2   0 -25  -16.80   13.30
  -2   0  25   23.00   15.20
   2   0 -25  -18.20   12.00
   2   0  25  -10.00    8.90
   2  -1 -25   -7.30   12.80
   2  -1 -25   -0.40   14.90
  -2   1 -25    4.00   11.30
  -2   1 -25    6.80   10.90
  -2  -1  25   27.60   15.70
   2   1  25   -6.40    9.20
  -2   1 -25   12.80   13.20
   2   1 -25    2.90   11.40
  -2   1  25   13.60   14.30
  -2  -1 -25    7.10   14.10
   2   1 -25   11.90   14.70
  -2  -1 -25    0.30   10.90
   2  -1  25   24.70   10.10
   2   1 -25  -18.40   10.80
  -2  -1 -25   -4.60   11.40
   2  -2 -25   -5.10   16.50
  -2   2 -25   16.40   11.40
  -2   2 -25    2.20   10.30
  -2   2 -25   11.60   14.10
  -2  -2  25   -5.90   11.90
   2  -2 -25    1.10   15.20
  -2  -2 -25   -7.10   10.40
  -2  -2 -25   -0.70   11.00
   2  -2  25    7.60    9.10
  -2  -2 -25   15.00   15.10
   2   2 -25   -2.90   16.00
  -2   2  25    9.60   17.70
   2  -3 -25  -10.40   18.30
  -2   3 -25   24.10   11.00
  -2   3 -25   43.00   19.90
  -2   3 -25   14.30   13.00
   2  -3 -25    6.40   16.40
  -2  -3  25  -12.50   13.20
  -2   3 -25   19.70   18.00
  -2  -3 -25   -1.20    9.60
  -2  -3 -25    9.60   14.80
  -2   3  25   -7.90   16.50
  -2  -3 -25   -6.40   11.80
   2   3 -25    3.30   19.40
   2  -3  25    8.20    9.70
   2  -4 -25   21.90   17.20
  -2  -4  25   18.80   17.20
   2  -4 -25    1.10   10.40
  -2   4 -25   38.80   18.90
  -2   4 -25   43.20   25.70
   2  -4 -25   -2.20   18.00
  -2   4 -25   29.10   14.40
  -2  -4 -25   22.70   10.90
  -2  -4 -25   36.80   18.20
   2   4 -25   -0.30   12.90
   2   4 -25   28.30   24.90
   2  -4  25   28.60   13.50
  -2  -4 -25   16.40   13.70
   2  -4  25   22.80   11.20
  -2   4  25  -43.90   18.60
   2  -5 -25  -30.60   21.00
  -2   5 -25   -7.70   12.50
  -2  -5  25    0.60   15.60
   2  -5 -25  -18.40   15.10
  -2   5 -25   11.20   26.20
   2  -5 -25  -18.20    9.80
  -2   5 -25   11.50   22.30
   2  -5  25   11.40   13.50
  -2  -5 -25    0.10   17.70
   2  -5  25    3.20   10.30
  -2  -5 -25   -5.40   12.20
   2   5 -25  -32.70   22.30
   2   5 -25   -6.60   12.80
   2  -6 -25   -3.60   16.70
   2  -6 -25  -38.30   20.50
  -2   6 -25   20.80   25.40
  -2   6 -25   13.80   28.10
   2  -6 -25    4.60   12.10
  -2  -6  25   10.00   18.90
   2   6 -25  -15.60   31.10
   2  -6  25    6.70   10.30
  -2  -6 -25   14.10   14.70
  -2  -6 -25   11.50   20.80
   2  -6  25    3.00   13.00
  -2  -7  25    2.40   17.30
   2  -7 -25    1.70   13.80
  -2   7 -25  -19.10   29.00
   2  -7 -25  -25.30   16.30
   2  -7 -25  -39.00   26.00
  -2   7 -25    2.60   35.80
   2   7 -25  -12.60   33.50
  -2  -7 -25   -1.10   23.80
  -2  -7 -25  -46.00   15.00
   2  -7  25    4.00   10.70
   2  -7  25   13.00   15.00
  -2  -7 -25   12.30   18.00
  -3   0  25    6.20   15.30
   3   0 -25  -24.10   12.90
  -3   0 -25   -5.70    7.70
  -3   0 -25  -12.10   12.00
  -3   0 -25  -13.20   11.90
   3  -1 -25   35.40   18.30
   3  -1 -25   58.69   19.60
  -3   1 -25   49.80   14.30
  -3   1 -25   53.39   16.10
  -3   1 -25  111.59   20.60
  -3  -1 -25  107.39   22.80
  -3  -1 -25   54.79   15.20
  -3  -1 -25   72.19   18.20
   3   1 -25    6.00   16.50
  -3   2 -25  -10.70    9.10
   3  -2 -25  -23.70    6.80
  -3   2 -25   -7.70   15.10
  -3   2 -25   -2.10   14.00
  -3  -2  25    0.70   15.60
   3  -2 -25  -23.20   15.00
   3  -2 -25  -21.30   11.10
  -3  -2 -25   -4.70   11.10
   3   2 -25  -18.30   15.90
   3   2 -25  -32.30   12.50
  -3   2  25   -9.90   18.80
  -3  -2 -25  -12.90   16.20
  -3  -2 -25   -0.50   13.30
  -3   3 -25   22.90   16.50
  -3  -3  25   -4.90   12.90
   3  -3 -25   10.00    8.40
  -3   3 -25   17.40   11.40
   3  -3 -25  -28.20   14.70
  -3   3 -25    9.90   13.60
   3  -3 -25   -3.00   18.30
  -3  -3 -25   41.10   15.30
   3   3 -25   12.50   21.20
  -3  -3 -25   26.90   19.60
  -3   3  25   17.00   20.20
  -3  -3 -25    4.30   12.00
   3   3 -25   -8.40   12.50
  -3   4 -25    5.30   11.90
   3  -4 -25  -31.80   18.50
  -3   4 -25   18.30   19.90
   3  -4 -25    3.50    8.80
   3  -4 -25  -40.10   14.40
  -3  -4  25  -11.90   13.80
  -3  -4 -25   12.00   17.60
  -3   4  25  -36.80   21.10
   3   4 -25   16.40   13.40
   3   4 -25  -19.70   20.20
  -3  -4 -25   19.30   14.10
  -3  -4 -25   -8.00   11.10
   3  -4  25  -15.90   11.00
  -3   5 -25  186.58   31.60
  -3   5 -25  180.78   38.20
  -3   5 -25  152.28   24.80
   3  -5 -25   89.39   28.90
  -3  -5  25   79.99   23.50
   3  -5 -25   98.99   16.60
   3  -5 -25   43.00   22.40
   3   5 -25  129.39   19.90
   3  -5  25  128.39   17.80
   3   5 -25  199.48   41.60
  -3  -5 -25  203.08   31.60
  -3  -6  25    2.30   20.50
   3  -6 -25   -1.00   11.80
  -3   6 -25   20.80   29.30
  -3   6 -25    6.80   21.30
   3  -6 -25  -39.40   21.70
  -3  -6 -25    6.40   13.00
   3   6 -25  -51.49   30.70
  -3  -6 -25    5.40   22.50
   3  -6  25   14.70   11.90
  -3   7 -25   54.69   35.00
  -3  -7  25   40.50   24.00
   3  -7 -25   33.00   13.90
  -3   7 -25   65.19   29.70
   3  -7 -25  -42.50   23.90
   3  -7  25   39.10   13.30
  -3  -7 -25   59.69   28.80
   3   7 -25  -22.20   34.80
  -3  -7 -25   39.90   17.20
  -4   0 -25   -7.90   14.70
  -4   0 -25  -13.60   16.00
   4   0 -25  -29.40   13.50
  -4   0  25   11.50   17.80
  -4   0 -25   -4.00   11.40
  -4   1 -25   12.20   16.20
   4  -1 -25   10.30   12.80
  -4  -1  25   33.50   20.00
  -4   1 -25   36.10   15.30
  -4  -1 -25   32.20   14.10
   4   1 -25   15.90   18.20
  -4   1  25   64.69   21.90
  -4  -1 -25   49.10   18.20
  -4  -1 -25   29.90   19.20
   4   1 -25    5.50   12.90
   4   1 -25   42.80   16.70
   4  -2 -25  -30.00   14.20
  -4  -2  25   16.70   16.50
  -4   2 -25    1.10    9.80
  -4   2 -25  -22.40   13.80
  -4   2  25   -0.40   18.10
  -4  -2 -25  -11.80   15.70
   4   2 -25  -14.20   18.30
   4   2 -25   -0.30   13.70
  -4  -2 -25   -5.10   12.00
  -4  -2 -25    0.90   14.60
  -4  -3  25   -9.10   16.90
  -4   3 -25    5.80    9.30
   4  -3 -25    0.60    7.30
   4  -3 -25  -29.90   14.50
  -4   3 -25    3.40   17.50
  -4  -3 -25    1.50   13.70
  -4  -3 -25   -8.70   19.40
  -4   3  25  -11.10   20.00
   4   3 -25   17.80   13.80
   4   3 -25   -8.10   21.60
  -4  -3 -25   17.70   14.60
   4  -4 -25    3.10    8.10
  -4   4 -25   10.50   10.10
  -4   4 -25    1.60   19.20
  -4  -4  25  -13.80   15.80
  -4  -4 -25   14.40   13.70
  -4  -4 -25   -3.90   19.00
   4   4 -25  -21.70   21.10
  -4   4  25  -23.60   20.90
   4  -4  25    6.00   12.50
  -4  -4 -25    8.00   14.00
   4  -5 -25    3.30    9.10
  -4  -5  25    8.60   20.40
   4  -5 -25  -24.40   15.30
  -4   5 -25   28.50   23.00
  -4  -5 -25   -2.00   13.50
  -4  -5 -25   32.20   25.70
   4   5 -25  -31.50   28.30
  -4  -5 -25   18.30   15.90
   4  -5  25    9.10   12.60
  -4   6 -25   29.50   25.00
  -4   6 -25   35.40   29.80
   4  -6 -25  -25.70   14.90
   4  -6 -25    9.10   11.50
  -4  -6  25    5.80   19.50
   4   6 -25  -17.90   34.20
  -4  -6 -25   27.90   14.10
   4  -6  25   10.00   11.40
  -4  -6 -25   24.90   24.50
  -4  -7  25   -4.40   23.10
   4  -7 -25    0.90   12.70
  -4  -7 -25   -3.30   26.40
   4  -7  25    2.30   13.30
  -5   0 -25   10.30   12.70
   5   0 -25  -38.40   13.00
   5   0 -25    2.80   14.20
  -5   0 -25    4.20   17.40
  -5   0  25   10.50   19.70
  -5   1 -25   38.00   14.30
  -5   1 -25   48.00   21.40
  -5  -1  25   47.00   20.60
   5  -1 -25   41.30   17.60
   5   1 -25   28.00   15.60
  -5  -1 -25   46.50   14.90
   5   1 -25   22.20   22.30
  -5  -1 -25   72.39   20.30
   5   1 -25   53.99   17.40
  -5   1  25   49.70   21.20
   5  -2 -25  -41.10   15.20
   5  -2 -25    3.50   12.20
  -5   2 -25  -10.70   15.10
  -5   2 -25    7.60   11.90
  -5  -2  25    6.20   20.40
  -5  -2 -25    1.40   15.00
   5   2 -25   -3.20   13.20
  -5  -2 -25   -7.30   19.80
  -5   2  25  -10.60   19.60
  -5  -2 -25  -11.60   12.30
   5   2 -25  -23.60   18.50
  -5  -3  25  124.09   26.60
  -5   3 -25   82.49   25.30
   5  -3 -25  110.69   23.30
  -5   3 -25  103.09   19.80
  -5  -3 -25   76.19   28.60
   5   3 -25  140.19   33.70
  -5  -3 -25  116.29   21.90
  -5  -3 -25  150.38   22.10
  -5   3  25  121.49   30.00
  -5  -4  25  -16.30   17.60
  -5   4 -25    1.20   19.80
   5  -4 -25   -7.40   15.60
  -5   4 -25   20.20   11.50
  -5  -4 -25   -1.50   14.20
  -5  -4 -25    8.30   13.70
  -5  -4 -25  -26.30   18.70
  -5   4  25  -34.70   21.00
   5   4 -25  -31.50   24.20
   5  -5 -25  -59.19   20.70
  -5   5 -25   42.00   24.20
  -5  -5  25   -2.90   19.60
   5  -5 -25   -5.40   16.00
  -5  -5 -25   34.30   17.10
   5   5 -25  -16.30   26.90
   5  -5  25   44.50   16.40
  -5  -5 -25    3.40   22.80
  -5   5  25  -56.59   22.80
  -5  -5 -25   36.20   15.50
   5  -6 -25  -17.30   17.80
  -5   6 -25  -11.30   23.30
  -5  -6  25   -3.00   22.10
   5  -6  25   13.20   14.90
  -5  -6 -25   25.40   16.40
   5   6 -25  -43.90   30.20
  -5  -6 -25   -9.70   23.30
   6   0 -25    2.70   16.00
  -6   0 -25   -0.20   18.50
  -6   0  25    3.50   19.80
  -6   0 -25   15.10   12.70
  -6   1 -25   21.10   12.90
   6  -1 -25  -20.50   16.40
   6  -1 -25   17.70   16.30
  -6   1 -25   34.90   23.00
  -6  -1  25   11.50   19.70
  -6  -1 -25   16.60   14.10
  -6  -1 -25    8.00   17.90
  -6   1  25   26.50   21.20
  -6  -2  25    3.50   19.80
  -6   2 -25   14.20   12.70
  -6   2 -25    0.70   21.00
   6  -2 -25    2.80   15.30
  -6  -2 -25   -6.20   12.90
  -6   2  25  -25.10   23.60
  -6  -2 -25   10.50   16.10
   6   2 -25  -23.70   24.50
  -6   3 -25   38.00   15.10
   6  -3 -25  -49.50   20.00
  -6  -3  25   12.20   20.40
  -6   3 -25   11.40   20.20
   6  -3 -25   15.60   16.80
   6   3 -25   11.70   27.00
  -6  -3 -25   36.90   17.10
  -6  -3 -25   38.70   25.50
  -6  -3 -25   34.60   16.40
  -6   3  25   23.30   25.20
  -6   4 -25   19.00   12.00
   6  -4 -25    1.00   15.90
  -6   4 -25    4.70   20.10
   6  -4 -25  -46.50   19.60
  -6  -4  25   -4.30   21.80
  -6   4  25  -35.10   22.30
  -6  -4 -25   14.40   15.40
   6   4 -25  -20.00   22.90
  -6  -4 -25   -5.60   21.90
  -6  -4 -25    6.30   14.80
  -6  -5  25    5.70   17.80
   6  -5 -25    1.00   16.20
  -6   5 -25   -3.10   22.40
  -6  -5 -25   20.50   15.80
   6   5 -25  -44.70   28.40
   6  -5  25   10.60   15.70
  -6  -5 -25   24.80   17.50
  -6  -5 -25    4.20   22.90
  -7   0 -25   -0.10   12.90
  -7   0 -25   13.80   18.10
   7   0 -25  -12.90   17.80
  -7   0  25  -19.00   20.90
  -7  -1  25   78.69   29.70
  -7   1 -25   70.59   23.30
  -7   1 -25   57.39   16.10
   7  -1 -25   43.80   23.50
  -7   1  25   63.09   27.20
  -7  -1 -25   53.69   16.80
  -7  -1 -25   85.39   23.90
  -7   2 -25    4.90   24.20
   7  -2 -25  -35.40   19.50
  -7  -2  25    2.70   25.50
  -7   2 -25   14.00   13.10
  -7  -2 -25   -1.00   14.10
  -7  -2 -25    6.00   17.80
  -7   2  25    7.90   26.90
  -7  -3  25   34.20   25.00
  -7   3 -25   29.80   21.70
   7  -3 -25   -2.90   21.70
  -7   3 -25   44.40   16.40
  -7  -3 -25   21.20   15.70
  -7   3  25   -5.70   28.60
  -7  -3 -25   41.00   19.40
  -7  -3 -25   34.00   27.00
   7   3 -25    3.90   31.40
   7  -4 -25  -37.60   20.90
  -7   4 -25   10.40   17.60
  -7  -4  25    5.50   25.60
  -7  -4 -25   -5.70   24.50
   7   4 -25  -21.00   29.90
  -7   4  25  -22.30   28.30
  -7  -4 -25   16.10   17.80
  -8   0  25  -14.70   24.00
  -8   0 -25   21.60   23.30
  -8  -1  25   -5.40   24.30
  -8   1 -25   53.19   28.60
   8  -1 -25   -9.70   20.60
  -8   1  25    5.90   29.30
  -8  -1 -25   10.20   22.40
   8  -2 -25  -24.30   20.10
   0   0 -26  609.64   53.49
   0   0  26  623.94   53.49
   0   0 -26  588.44   52.39
   0   0 -26  545.05   52.29
   0   0 -26  554.84   53.89
   0  -1 -26    2.70   11.20
   0   1 -26   13.30   16.60
   0  -1 -26   -5.10    9.40
   0   1  26   -7.40   12.70
   0   1 -26    3.50   10.10
   0  -1  26    2.70   11.50
   0   1 -26    0.60   12.60
   0   1 -26    4.50   13.80
   0  -1 -26   -5.90   12.50
   0  -1 -26    5.50   12.50
   0   2 -26  140.19   18.90
   0  -2  26   98.19   20.60
   0   2 -26  177.78   27.80
   0   2  26  129.19   24.10
   0  -2 -26  176.08   22.00
   0  -2 -26  163.08   23.80
   0  -2 -26  176.18   25.40
   0   2 -26  195.58   28.60
   0   2 -26  149.99   23.00
   0   3 -26   -1.30   15.10
   0   3 -26   -4.90   20.00
   0  -3  26  -10.30   10.50
   0   3 -26   -5.10   19.10
   0  -3 -26   -3.70   16.30
   0  -3 -26    4.10   13.50
   0   3  26  -26.50   14.00
   0  -3 -26    5.00   11.50
   0   4 -26  179.78   28.00
   0  -4 -26  210.78   27.30
   0  -4  26  145.59   25.30
   0   4 -26  223.98   35.20
   0   4 -26  252.57   36.30
   0  -4 -26  210.18   28.60
   0  -5  26    6.50    9.70
   0  -5 -26    3.40   17.70
   0  -5  26    8.00   15.10
   0  -5 -26    6.00   14.80
   0   5 -26  -14.20   23.10
   0  -6 -26   62.79   23.20
   0   6 -26  245.78   44.30
   0  -6  26  157.78   18.90
   0  -6  26  124.99   23.30
   0  -6 -26  165.38   30.90
   0  -6 -26  159.98   26.30
   0  -7  26   13.70   10.30
   0   7 -26    0.00   35.10
   0  -7  26    9.80   15.70
   0  -7 -26  -13.30   15.80
   0  -7 -26  -20.50   21.40
   0  -7 -26  -51.19   15.20
   1   0 -26    8.70   16.30
   1   0 -26    8.40   11.60
  -1   0 -26   19.10   13.50
  -1   0 -26   21.70   13.50
  -1   0 -26   15.60   10.30
   1   0  26   18.90   11.60
   1   0 -26    5.20   12.90
  -1   0  26   31.40   14.90
  -1   0 -26   21.40   13.50
   1   0 -26   26.20   15.60
  -1   1 -26   11.90   15.00
  -1  -1  26   11.40   13.10
  -1   1 -26    7.70   11.90
   1  -1 -26   -4.00   11.90
   1   1  26   -2.40   11.50
  -1   1 -26    4.20   10.80
   1  -1 -26   16.00   14.10
  -1   1 -26   24.00   14.40
  -1  -1 -26    7.60   11.80
  -1  -1 -26   16.20   14.00
   1  -1  26    9.80   10.50
  -1   1  26    6.20   14.20
  -1  -1 -26    7.70   10.90
   1   1 -26   -5.30   10.30
   1   1 -26    8.40   14.20
  -1  -1 -26    4.00   12.90
   1   1 -26    1.90   12.30
   1  -2 -26    7.30   14.20
  -1   2 -26    3.20   12.20
   1   2  26  -27.90   10.30
   1  -2 -26  -15.40   15.00
  -1   2 -26   -0.30    9.50
  -1   2 -26    0.00   15.50
  -1  -2  26   -7.50   12.50
  -1   2 -26    7.70   17.30
   1  -2  26    2.10    9.70
   1   2 -26  -10.00   14.00
  -1  -2 -26   10.90   13.40
  -1   2  26  -13.70   15.50
  -1  -2 -26    9.40   12.50
   1   2 -26  -13.20   14.00
   1   2 -26  -24.10    9.70
  -1  -2 -26   13.80   12.20
  -1   3 -26   35.50   20.80
  -1  -3  26  -11.90   12.00
  -1   3 -26   21.40   13.20
   1  -3 -26   22.80   15.60
  -1   3 -26   21.10   17.40
   1  -3 -26   29.10   17.10
  -1  -3 -26   20.30   12.30
  -1  -3 -26   26.00   16.80
   1   3 -26    3.80   14.70
   1   3 -26    5.60   19.20
   1  -3  26    2.00   10.00
  -1   3  26  -10.50   17.90
  -1  -3 -26    2.80   12.40
   1  -4 -26   -3.20   14.50
  -1   4 -26    5.50   18.60
  -1  -4  26    1.10   15.30
   1  -4 -26  -14.50   16.40
  -1   4 -26   17.70   21.10
  -1   4 -26   -1.50   12.10
  -1  -4 -26    7.00   16.10
  -1  -4 -26    0.30   13.10
   1  -4  26   18.60   14.80
  -1  -4 -26   14.90   12.30
   1   4 -26   -6.20   19.70
   1  -5 -26   26.10   16.90
  -1   5 -26   18.80   24.60
  -1  -5  26    8.40   17.40
  -1   5 -26   17.20   26.70
  -1  -5  26   23.00    9.40
  -1   5 -26   -4.60   14.00
   1  -5 -26    9.00   19.00
   1  -5  26   18.20   10.80
  -1  -5 -26   12.30   14.10
  -1  -5 -26   18.50   18.40
   1  -5  26   14.00   14.70
   1   5 -26   -8.40   23.30
  -1   6 -26  -30.70   23.00
  -1  -6  26   12.80   16.10
  -1  -6  26    8.20    8.70
  -1   6 -26    2.70   27.60
   1  -6 -26  -17.40   13.90
   1  -6 -26  -20.30   15.60
   1  -6 -26  -28.70   19.90
  -1  -6 -26   -6.10   14.60
   1   6 -26  -13.70   31.10
   1  -6  26    5.70   14.30
   1  -6  26    7.90   10.60
  -1  -6 -26    1.80   20.10
   1  -7 -26  -11.90   23.20
  -1   7 -26   16.10   32.50
  -1  -7  26   29.10   17.60
   1  -7 -26   12.70   21.70
   1  -7 -26    3.70   13.70
  -1  -7 -26    2.90   22.70
   1  -7  26   12.70   16.80
   1  -7  26   23.40   11.60
  -1  -7 -26  -38.30   14.00
   1   7 -26  -25.40   35.10
  -1  -7 -26   34.80   20.30
   2   0 -26  108.79   20.90
   2   0 -26   91.79   20.60
   2   0  26  114.59   16.50
  -2   0 -26   71.79   17.90
  -2   0 -26  101.99   19.50
  -2   0  26  157.88   23.60
  -2   0 -26  101.69   20.90
   2   0 -26  131.99   20.80
   2  -1 -26   -5.00   15.30
  -2  -1  26   14.30   15.10
  -2   1 -26   15.10   15.70
  -2   1 -26    6.10   12.00
   2   1  26  -12.50    8.70
   2  -1 -26  -16.30   15.00
  -2   1 -26   12.50   12.10
   2   1 -26  -12.50   14.50
  -2   1  26   26.30   15.20
   2   1 -26   -9.50   11.20
  -2  -1 -26   -8.50   11.50
  -2  -1 -26   -0.90   12.90
  -2  -1 -26   11.60   14.50
   2   1 -26   -3.80   14.20
   2  -1  26   24.00   10.00
  -2   2 -26  293.87   31.60
  -2   2 -26  230.38   29.30
   2  -2 -26  297.57   34.20
  -2  -2  26  282.37   35.10
  -2   2 -26  332.27   33.30
   2  -2 -26  336.57   36.50
   2  -2  26  276.57   29.60
  -2  -2 -26  308.67   33.10
   2   2 -26  322.47   36.00
  -2   2  26  357.86   39.00
  -2  -2 -26  215.38   31.30
  -2  -3  26  -15.80   11.30
  -2   3 -26    5.60   16.50
  -2   3 -26    9.80   11.70
   2  -3 -26    3.10   16.60
   2  -3 -26  -12.10   16.30
  -2   3 -26    7.70   19.00
  -2   3  26  -15.10   19.30
  -2  -3 -26   -9.00   12.00
  -2  -3 -26    1.30   10.40
  -2  -3 -26   -0.50   14.40
   2   3 -26   -2.10   18.40
   2  -3  26    9.90    9.30
  -2  -4  26  108.19   24.70
   2  -4 -26  137.99   26.00
   2  -4 -26   73.79   17.10
   2  -4 -26  131.39   27.40
  -2   4 -26  186.88   35.40
  -2   4 -26  144.59   21.60
   2   4 -26  161.88   33.50
  -2  -4 -26  165.08   26.80
   2  -4  26  123.49   20.10
  -2  -4 -26  102.99   21.10
  -2   4  26   48.20   25.20
   2  -4  26  104.79   17.30
  -2  -4 -26   82.19   17.50
  -2   5 -26   10.90   20.60
   2  -5 -26  -10.60   17.00
  -2  -5  26    2.40   16.60
  -2   5 -26    8.30   27.00
   2  -5 -26  -21.30   19.30
  -2   5 -26   -6.90   13.30
   2  -5 -26  -37.00   10.40
   2   5 -26  -25.50   25.90
  -2  -5 -26   15.50   14.30
   2  -5  26   10.20   11.50
   2  -5  26   13.50   12.70
  -2  -5 -26   -2.30   17.80
  -2   6 -26  127.39   35.60
   2  -6 -26   40.40   16.10
   2  -6 -26   51.89   21.80
  -2  -6  26   75.99   24.00
   2  -6 -26   42.30   26.20
  -2   6 -26   88.79   27.40
   2  -6  26   89.99   15.20
   2   6 -26   46.40   32.40
  -2  -6 -26   63.59   19.30
   2  -6  26   76.49   17.70
  -2  -6 -26   84.39   25.60
   2  -7 -26  -39.70   22.70
  -2  -7  26   14.50   21.20
   2  -7 -26  -45.60   19.00
  -2   7 -26  -27.00   24.70
  -2   7 -26   -2.30   32.00
   2  -7 -26  -30.40   12.90
   2  -7  26   12.80   17.60
  -2  -7 -26  -46.20   13.50
   2   7 -26  -37.20   36.20
  -2  -7 -26    0.40   24.60
  -2  -7 -26   15.50   19.10
   2  -7  26   12.40   11.70
  -3   0  26    8.60   16.20
  -3   0 -26    3.40   13.30
  -3   0 -26  -15.70   12.70
  -3   0 -26  -15.10    9.90
  -3  -1  26   24.20   17.40
   3  -1 -26  -12.10   16.60
  -3   1 -26   -6.10   14.90
  -3   1 -26   19.90   14.70
   3  -1 -26  -25.10   14.70
  -3   1 -26    0.50    9.90
  -3  -1 -26   -1.70   10.90
  -3  -1 -26    3.60   14.70
  -3  -1 -26   -4.90   12.60
  -3   1  26    7.90   15.50
   3   1 -26  -10.20   15.20
   3  -2 -26   -7.70    8.40
  -3   2 -26   29.50   14.90
   3  -2 -26  -37.30   17.30
   3  -2 -26  -21.70   15.20
  -3   2 -26   29.40   18.20
  -3  -2  26   18.10   17.60
  -3   2 -26    4.90   11.20
  -3  -2 -26   -9.20   15.40
   3   2 -26  -43.00   13.60
  -3  -2 -26   18.50   14.10
   3   2 -26    8.50   19.00
  -3  -2 -26   -5.50   11.50
  -3   2  26   17.40   18.30
  -3   3 -26   -5.10   17.60
  -3   3 -26   22.00   17.10
   3  -3 -26  -13.10    8.00
   3  -3 -26  -25.30   15.30
  -3  -3  26   -5.10   15.30
  -3   3 -26    5.10   11.20
   3  -3 -26  -31.20   17.50
  -3  -3 -26  -11.70   10.70
   3   3 -26  -17.70   18.60
   3   3 -26  -28.60   12.80
  -3  -3 -26   11.90   17.40
  -3   3  26  -19.40   20.70
  -3  -3 -26    8.00   12.70
   3  -4 -26  -27.90   16.40
  -3   4 -26   -4.00   19.90
  -3  -4  26  -13.80   16.30
  -3   4 -26   24.50   13.50
   3  -4 -26  -11.90    9.20
  -3   4 -26   23.10   25.00
   3  -4 -26  -26.60   19.60
   3   4 -26  -23.50   23.10
  -3  -4 -26    2.50   12.60
  -3  -4 -26    2.30   17.90
   3   4 -26   -0.70   13.30
  -3  -4 -26   29.80   14.40
  -3   4  26  -38.70   22.10
   3  -4  26    6.80   10.50
  -3   5 -26   30.50   27.40
  -3  -5  26   12.50   17.70
   3  -5 -26  -24.70   21.90
  -3   5 -26   34.50   24.00
   3  -5 -26  -42.60   15.80
   3  -5 -26    4.00   10.80
  -3  -5 -26   12.40   20.20
  -3  -5 -26   12.80   13.00
   3   5 -26   -5.10   28.10
   3  -5  26   29.40   12.70
   3   5 -26   21.80   15.20
   3  -6 -26   -4.70   12.30
  -3  -6  26    7.90   18.50
  -3   6 -26    9.60   24.10
  -3   6 -26    4.00   28.10
   3  -6  26   -8.60   11.80
   3   6 -26  -34.90   27.80
  -3  -6 -26   -9.90   21.80
  -3  -6 -26    5.30   14.10
   3  -7 -26   11.30   14.40
  -3  -7  26   19.00   20.30
   3  -7 -26  -42.70   24.40
  -3   7 -26   19.90   36.90
  -3   7 -26    0.00   28.40
   3   7 -26   -1.40   39.30
   3  -7  26   31.30   13.80
  -3  -7 -26    1.30   24.00
  -4   0 -26   90.09   22.50
  -4   0  26  180.58   26.50
   4   0 -26   67.29   22.00
  -4   0 -26  109.39   20.40
  -4   0 -26  148.39   26.50
  -4   1 -26   12.40   12.50
  -4  -1  26   29.50   20.30
  -4   1 -26   -9.20   15.30
   4  -1 -26  -43.50   14.60
  -4  -1 -26    2.90   16.20
  -4  -1 -26   10.10   13.30
  -4   1  26   27.70   18.00
   4   1 -26    8.20   18.70
   4   1 -26  -19.20   14.90
  -4  -1 -26  -10.00   18.40
   4  -2 -26   17.50   19.20
   4  -2 -26   20.70   22.30
  -4   2 -26   54.29   18.90
  -4  -2  26  136.19   26.60
  -4   2 -26   58.79   15.80
  -4  -2 -26   91.79   25.00
  -4   2  26  182.38   28.60
  -4  -2 -26   99.09   21.60
   4   2 -26  141.69   28.50
  -4  -2 -26   74.89   18.60
   4   2 -26   82.29   20.10
   4  -3 -26  -55.99   19.60
  -4   3 -26    4.80   11.20
  -4   3 -26   -0.50   18.40
  -4  -3  26   -2.60   15.80
  -4   3  26   -4.30   23.10
   4   3 -26  -22.20   13.40
  -4  -3 -26   27.30   16.70
  -4  -3 -26  -21.50   16.90
   4   3 -26  -30.20   20.10
  -4  -3 -26   -0.80   13.90
  -4   4 -26  131.79   27.60
  -4  -4  26   51.89   20.70
   4  -4 -26   98.19   14.40
   4  -4 -26   13.00   24.20
  -4   4 -26   90.29   17.80
   4   4 -26   91.79   19.10
   4   4 -26  121.79   34.70
  -4  -4 -26  116.39   21.30
  -4  -4 -26  107.19   27.10
  -4  -4 -26   66.19   19.50
  -4   4  26   74.99   27.90
   4  -5 -26   -1.40    9.80
  -4   5 -26   39.20   26.30
   4  -5 -26  -55.19   19.80
  -4  -5  26   -6.90   16.80
  -4   5 -26  -10.10   21.90
   4  -5 -26  -39.80   16.10
   4   5 -26  -26.80   25.30
  -4  -5 -26   10.90   13.60
   4  -5  26   16.30   13.30
  -4  -5 -26   18.60   24.30
  -4   6 -26   87.49   29.50
   4  -6 -26   46.50   13.60
   4  -6 -26  -22.50   20.30
  -4   6 -26   66.59   32.60
  -4  -6  26   53.09   26.10
   4  -6 -26  -19.80   25.20
   4   6 -26    9.30   36.40
  -4  -6 -26   27.60   14.50
   4  -6  26   64.49   16.00
  -4  -6 -26   71.79   28.60
   5   0 -26    1.40   16.50
  -5   0  26   30.10   19.40
  -5   0 -26   20.70   13.60
  -5   0 -26   37.10   18.20
  -5   1 -26    4.20   12.40
  -5  -1  26   10.40   18.60
  -5   1 -26    8.50   16.60
   5  -1 -26  -12.70   15.80
  -5  -1 -26    3.40   13.30
  -5  -1 -26  -16.10   19.20
  -5  -1 -26   15.30   18.00
   5   1 -26    0.70   15.10
  -5   1  26   -0.30   17.80
  -5  -2  26   21.20   22.50
  -5   2 -26   -2.10   15.40
   5  -2 -26  -12.90   16.30
  -5   2 -26   16.00   12.50
   5   2 -26   23.90   16.30
   5   2 -26    0.40   21.60
  -5  -2 -26   -1.60   22.20
  -5   2  26   -3.90   22.50
  -5  -2 -26   12.10   16.30
  -5  -2 -26    0.20   14.00
   5  -3 -26  -14.60   16.50
  -5   3 -26   33.50   14.00
  -5  -3  26    1.70   18.20
  -5   3 -26    0.70   18.00
  -5   3  26    3.50   22.90
  -5  -3 -26    1.10   14.50
   5   3 -26   -8.50   22.30
  -5  -3 -26   20.10   15.70
  -5  -3 -26   -3.90   19.70
  -5  -4  26   -3.40   19.40
   5  -4 -26  -37.30   18.30
  -5   4 -26   30.60   12.00
  -5   4 -26   12.40   21.30
  -5  -4 -26   18.00   15.20
  -5   4  26  -21.50   26.20
  -5  -4 -26   -3.50   21.00
   5   4 -26  -11.20   23.50
  -5  -4 -26   20.10   16.60
  -5  -5  26   -1.70   16.60
   5  -5 -26  -27.60   18.70
  -5   5 -26   18.00   24.00
  -5  -5 -26   14.30   16.60
   5  -5  26   11.70   14.60
  -5  -5 -26   -1.00   22.10
  -5  -5 -26   25.20   20.90
   5   5 -26  -25.90   26.20
  -5  -6 -26   13.90   28.30
   5  -6  26   17.50   13.40
  -6   0  26  130.19   27.80
  -6   0 -26  101.99   23.50
  -6   0 -26   99.09   19.70
  -6  -1  26    6.90   20.50
  -6   1 -26   14.80   18.50
   6  -1 -26  -45.70   17.00
  -6   1 -26   12.30   13.40
   6  -1 -26   -1.30   16.00
  -6  -1 -26   21.50   19.30
  -6   1  26    1.60   20.10
  -6  -1 -26   11.20   13.80
  -6   2 -26   23.10   19.90
  -6   2 -26   61.29   16.20
  -6  -2  26   62.89   27.00
   6  -2 -26   46.70   19.60
  -6  -2 -26   51.89   17.50
  -6   2  26   27.50   24.40
  -6  -2 -26   60.19   20.20
   6   2 -26   42.10   30.70
  -6  -2 -26   34.10   25.70
   6  -3 -26  -16.80   18.50
  -6   3 -26   33.00   15.40
  -6  -3  26    2.40   21.10
  -6   3 -26  -12.00   18.10
  -6   3  26  -17.50   22.90
  -6  -3 -26    4.30   25.20
  -6  -3 -26   13.00   16.90
   6   3 -26  -31.40   24.40
  -6  -3 -26   28.10   15.90
  -6   4 -26   37.60   24.40
   6  -4 -26   18.00   18.90
  -6  -4  26   36.60   25.30
  -6   4 -26   48.30   14.20
  -6  -4 -26   45.80   26.00
  -6  -4 -26   59.69   18.40
   6   4 -26   29.70   30.20
  -6   4  26   24.50   30.10
  -6  -4 -26   45.50   18.70
   6  -5 -26  -62.49   21.90
   6  -5  26   24.40   14.10
  -6  -5 -26   16.70   24.90
  -6   5  26  -78.79   26.80
   7   0 -26  -11.90   27.90
  -7   0 -26   15.10   13.80
  -7   0 -26   22.20   22.40
  -7   0  26    8.20   25.50
  -7  -1  26   16.30   23.00
   7  -1 -26  -43.20   19.20
  -7   1 -26   26.10   26.70
  -7   1 -26   33.00   16.00
  -7  -1 -26   18.50   20.80
  -7   1  26    0.50   23.20
  -7  -1 -26    1.90   14.00
  -7   2 -26   17.80   13.70
   7  -2 -26  -59.19   20.20
  -7   2 -26   16.90   21.00
  -7  -2  26   -3.00   22.60
  -7  -2 -26    6.10   14.70
  -7  -2 -26    7.20   19.10
  -7   2  26    1.50   24.00
  -7   3 -26   21.90   15.60
  -7  -3  26   -0.20   26.80
  -7   3 -26   15.80   23.60
  -7  -3 -26   12.30   18.20
  -7  -3 -26   19.10   16.70
  -7   3  26  -18.50   25.30
   7   3 -26  -39.30   27.90
  -7  -3 -26   21.70   27.00
   0   0 -27   16.00   12.50
   0   0 -27   25.00   13.00
   0   0 -27   17.30   11.20
   0   0  27   25.00   13.00
   0   0 -27   41.50   15.10
   0   1 -27   -1.50   16.60
   0  -1 -27   -2.90   11.80
   0   1 -27   -3.00   10.40
   0  -1 -27   13.00   13.70
   0   1 -27    0.60   13.00
   0   1 -27   -1.80   13.10
   0  -1 -27   -3.50   13.30
   0  -1  27    1.70   12.40
   0   1  27    2.50   13.50
   0   2 -27    5.90   16.20
   0   2 -27   17.40   14.00
   0  -2 -27   16.10   15.40
   0  -2  27    7.70   12.50
   0   2 -27   18.10   17.30
   0  -2 -27   22.50   13.20
   0   2  27  -13.50   14.70
   0   2 -27    5.40   10.50
   0  -2 -27   15.60   14.00
   0  -3 -27   -3.70   13.10
   0   3  27  -28.90   13.80
   0   3 -27    0.30   13.70
   0  -3  27    1.90   11.70
   0   3 -27   -5.20   20.40
   0  -3 -27   -5.10   16.20
   0   3 -27   -7.50   19.30
   0  -3 -27    3.80   11.70
   0  -4  27   10.90   12.70
   0   4 -27    9.60   21.20
   0  -4 -27   12.70   14.20
   0   4 -27    7.20   21.50
   0  -4 -27   13.00   17.20
   0   4 -27   -1.80   13.90
   0  -5 -27  -13.30   14.10
   0   5 -27  -37.50   14.30
   0  -5  27    7.10   10.00
   0  -5  27   -5.10   15.40
   0  -5 -27   -5.80   17.40
   0   5 -27  -14.60   23.60
   0  -6  27   20.10   15.80
   0  -6  27   34.80   11.30
   0  -6 -27   28.50   17.50
   0  -6 -27  -55.09   15.50
   0   6 -27   37.10   30.10
   0  -6 -27   15.30   20.80
   0  -7 -27  -13.50   19.00
   0  -7 -27  -12.90   21.90
   0  -7 -27  -61.09   16.10
   0   7 -27  -35.60   30.30
   0  -7  27    1.50   11.70
   0  -7  27    9.50   15.70
  -1   0  27    4.20   13.90
   1   0 -27   -7.20   11.90
   1   0 -27   -2.10   13.80
  -1   0 -27    6.00   12.40
   1   0  27    2.50   10.60
  -1   0 -27    3.20   12.90
  -1   0 -27   -3.00   12.20
  -1   0 -27   -2.80   14.60
   1   0 -27   -9.20   10.80
   1   1  27  303.07   36.10
   1  -1 -27  388.06   39.90
  -1   1 -27  412.56   38.30
  -1   1 -27  389.26   36.90
   1  -1 -27  433.96   39.50
  -1   1 -27  398.56   40.10
  -1  -1  27  334.87   37.40
  -1   1 -27  388.56   38.40
  -1  -1 -27  390.76   38.40
   1   1 -27  398.36   40.40
   1  -1  27  324.87   35.50
  -1  -1 -27  371.26   36.90
   1   1 -27  357.16   37.90
  -1  -1 -27  288.77   35.70
  -1  -1 -27  387.56   37.70
   1   1 -27  385.06   36.80
  -1   1  27  437.66   41.40
  -1   2 -27   30.90   19.00
  -1   2 -27   14.40   10.80
  -1   2 -27   26.80   18.10
   1  -2 -27   16.30   14.90
  -1   2 -27   19.30   13.70
  -1  -2  27    5.10   13.80
   1   2  27  -13.30   12.60
   1  -2 -27   25.40   17.20
  -1  -2 -27   21.90   13.80
   1  -2  27   23.10   11.90
  -1  -2 -27   25.40   14.60
  -1  -2 -27   12.90   13.70
  -1   2  27    6.30   16.90
   1   2 -27   -1.30   15.60
   1   2 -27   -7.70   14.60
  -1   3 -27  385.66   44.30
  -1   3 -27  365.26   38.10
   1  -3 -27  338.17   37.80
  -1   3 -27  360.76   36.10
   1  -3 -27  373.46   39.90
   1   3 -27  276.07   37.30
  -1  -3 -27  311.77   36.40
  -1  -3 -27  327.07   34.60
  -1  -3 -27  367.26   38.70
   1   3 -27  347.17   42.50
  -1   3  27  308.47   41.70
   1  -4 -27    8.00   15.90
  -1  -4  27   -4.70   15.10
  -1   4 -27   10.30   19.10
  -1   4 -27    5.70   15.00
  -1   4 -27   13.30   21.00
   1  -4 -27    4.30   19.40
  -1  -4 -27   36.50   19.50
   1   4 -27  -36.90   13.50
   1   4 -27   -6.60   22.30
   1  -4  27   14.00   13.40
  -1  -4 -27    6.10   14.30
  -1   5 -27   97.99   22.50
  -1  -5  27  124.59   26.30
  -1   5 -27  147.79   30.10
   1  -5 -27  129.39   26.00
   1  -5 -27  147.39   28.40
  -1   5 -27  147.09   36.50
   1  -5  27  117.69   18.50
   1   5 -27  120.09   36.00
   1  -5  27  130.99   23.20
  -1  -5 -27  158.88   27.90
  -1  -5 -27  140.19   23.60
  -1  -6  27   16.40   19.20
   1  -6 -27    4.00   17.30
   1  -6 -27  -32.20   14.00
   1  -6 -27  -32.00   22.60
  -1   6 -27   -0.60   27.70
   1  -6  27   20.30   16.40
  -1  -6 -27   21.00   16.30
  -1  -6 -27   35.60   24.90
   1  -6  27   21.30   11.40
  -1  -6 -27  -54.39   16.10
   1   6 -27   -1.30   27.70
   1  -7 -27   30.30   19.30
   1  -7 -27   54.99   31.00
  -1   7 -27  115.89   39.80
   1  -7 -27   68.99   23.80
  -1  -7  27   74.49   21.50
  -1  -7 -27   94.99   22.60
   1   7 -27   45.90   36.70
   1  -7  27   84.79   21.30
   1  -7  27  106.89   16.10
  -1  -7 -27   95.79   29.10
   2   0 -27  -17.80   13.80
  -2   0 -27    8.70   15.30
   2   0 -27   -1.70   16.30
   2   0  27   -4.60    9.60
  -2   0 -27   -8.10   13.10
  -2   0 -27   12.20   12.50
  -2   0  27   13.10   15.40
  -2   1 -27    7.00   12.20
  -2   1 -27   13.20   16.70
  -2   1 -27   -1.50   12.50
  -2  -1  27   -3.70   13.20
   2  -1 -27    0.50   16.10
   2  -1 -27   -1.30   16.10
   2  -1  27    5.70    9.30
  -2  -1 -27   -0.30   13.50
   2   1 -27   -8.60   14.10
   2   1 -27  -16.10   15.10
  -2  -1 -27   -7.10   12.00
  -2  -1 -27    7.30   14.50
  -2   1  27    7.20   16.40
   2   1 -27  -27.70   12.30
  -2   2 -27   19.20   16.20
  -2   2 -27   18.10   11.40
  -2   2 -27   22.80   18.70
   2  -2 -27    6.40   18.30
  -2   2 -27   20.70   14.60
  -2  -2  27   11.20   15.90
   2  -2 -27   -0.40   15.80
  -2   2  27   11.30   18.50
  -2  -2 -27   13.20   13.50
  -2  -2 -27   12.90   14.70
   2   2 -27   20.10   17.50
  -2  -2 -27   20.00   15.60
   2  -2  27    7.50   10.40
   2   2 -27  -13.30   15.30
  -2   3 -27    0.50   16.30
  -2   3 -27   -2.80   21.30
  -2   3 -27    9.40   12.60
   2  -3 -27  -28.70   16.40
   2  -3 -27  -13.60   15.90
  -2  -3  27  -18.30   14.20
  -2  -3 -27   -2.10   13.10
  -2   3  27  -11.80   19.80
   2   3 -27   -7.70   19.00
  -2  -3 -27    2.50   15.70
   2  -3  27    9.40    9.80
  -2  -3 -27   -1.10   13.00
  -2  -4  27    0.30   14.00
  -2   4 -27   12.50   24.40
  -2   4 -27   22.50   14.90
  -2   4 -27   22.90   21.40
   2  -4 -27    5.60   17.70
   2  -4 -27  -32.10   10.60
   2  -4 -27   -7.40   21.40
  -2  -4 -27   25.00   18.40
   2   4 -27    5.70   23.00
  -2  -4 -27   23.90   13.10
  -2   4  27  -25.00   19.00
   2  -4  27   12.60   11.50
  -2  -4 -27    5.40   13.60
   2  -5 -27  -33.30   19.40
   2  -5 -27  -11.10   16.90
  -2  -5  27   21.30   19.60
  -2   5 -27   -6.60   26.80
  -2   5 -27   -8.70   16.50
   2  -5 -27  -42.00   11.40
  -2   5 -27  -11.70   19.60
  -2  -5 -27   16.80   15.30
  -2  -5 -27  -19.80   19.60
   2  -5  27    6.20   14.60
   2   5 -27  -31.50   14.90
   2   5 -27  -26.40   22.30
   2  -5  27   17.00   12.30
   2  -6 -27  -26.70   24.40
  -2   6 -27    9.10   32.10
  -2   6 -27   15.20   27.50
   2  -6 -27  -23.80   12.50
  -2  -6  27   13.50   18.20
   2  -6 -27  -20.70   17.70
   2   6 -27  -19.60   30.50
  -2  -6 -27   26.00   24.20
   2  -6  27   29.10   20.00
  -2  -6 -27    2.70   15.60
   2  -6  27   24.00   12.40
  -2  -7  27    6.10   18.60
   2  -7 -27  -24.00   24.60
   2  -7 -27  -14.40   15.60
  -2   7 -27  -12.10   30.50
  -2   7 -27  -41.70   28.80
  -2  -7 -27  -56.49   13.60
   2   7 -27  -34.30   35.00
  -2  -7 -27    5.10   26.40
   2  -7  27   13.30   12.60
   3   0 -27  -28.60   13.70
  -3   0  27   17.50   17.50
  -3   0 -27   -3.60   14.90
   3   0 -27  -40.40   15.40
  -3   0 -27   -9.30   14.40
  -3   0 -27  -14.70   10.30
  -3   1 -27  146.59   23.00
   3  -1 -27  179.48   26.90
  -3   1 -27  199.98   24.80
  -3   1 -27  176.08   25.90
   3  -1 -27  241.78   29.30
  -3  -1 -27   95.99   21.00
  -3  -1 -27  215.58   28.50
   3   1 -27  103.89   26.10
  -3  -1 -27  134.19   23.40
   3   1 -27  100.39   22.10
   3  -2 -27  -20.30   19.10
   3  -2 -27  -30.40   16.10
  -3   2 -27   -2.30   12.10
  -3   2 -27    3.50   15.80
  -3  -2  27   14.50   16.10
  -3   2 -27   -7.70   11.00
   3  -2 -27  -25.70    7.70
  -3  -2 -27   -8.10   11.20
  -3  -2 -27   -0.90   12.50
   3   2 -27  -16.10   16.60
  -3   2  27    2.60   19.30
  -3  -2 -27  -12.50   16.00
  -3  -3  27   67.89   20.00
   3  -3 -27  105.79   28.60
  -3   3 -27  126.99   24.00
  -3   3 -27   96.79   18.50
   3  -3 -27   37.90   12.30
   3  -3 -27   55.79   21.60
  -3  -3 -27   96.39   23.50
   3   3 -27   12.80   17.60
  -3  -3 -27   38.80   16.30
  -3  -3 -27   54.69   16.10
   3   3 -27  115.39   28.10
  -3   3  27  111.29   28.40
  -3  -4  27   -4.70   14.40
  -3   4 -27   26.80   21.30
   3  -4 -27  -13.50   17.90
   3  -4 -27   -5.50   10.10
   3  -4 -27  -24.70   20.90
  -3   4 -27    6.50   11.80
  -3   4 -27   18.40   25.80
  -3  -4 -27   -9.40   12.50
  -3   4  27   -5.90   21.90
  -3  -4 -27   11.60   19.50
   3   4 -27  -24.40   15.70
  -3  -4 -27   30.50   13.60
   3   4 -27    2.00   23.70
   3  -5 -27  131.59   20.80
   3  -5 -27  181.58   37.20
  -3  -5  27  121.99   27.80
   3  -5 -27  113.29   28.30
  -3   5 -27  178.48   38.10
  -3   5 -27  208.88   34.20
  -3  -5 -27  126.19   24.50
   3  -5  27  228.98   24.80
  -3  -5 -27  258.17   35.50
  -3   5  27   99.79   37.50
   3   5 -27  159.48   24.90
   3   5 -27  209.28   40.20
  -3   6 -27    6.80   22.10
   3  -6 -27  -36.90   23.00
  -3  -6  27    0.90   21.30
  -3   6 -27   10.00   28.10
   3  -6 -27  -46.50   17.20
   3  -6 -27   -2.80   13.10
   3   6 -27  -33.80   27.90
  -3  -6 -27    6.80   22.20
   3  -6  27    9.40   12.90
  -3  -6 -27   -4.10   14.60
  -4   0 -27    7.20   16.30
  -4   0  27   26.20   17.80
  -4   0 -27   10.20   10.10
  -4   0 -27   10.60   16.70
  -4  -1  27   15.10   19.70
  -4   1 -27  -17.20   12.60
  -4   1 -27  -13.50   10.40
  -4   1 -27   18.50   19.00
  -4  -1 -27    6.10   13.10
  -4  -1 -27  -17.40   17.70
   4   1 -27  -35.80   14.60
  -4   1  27    0.30   17.10
  -4  -1 -27   -6.00   13.40
  -4   2 -27   -0.70   10.30
   4  -2 -27  -37.10   19.60
  -4   2 -27   -7.00   17.50
  -4  -2  27   24.40   21.30
  -4  -2 -27  -15.00   16.30
  -4   2  27    4.50   19.20
  -4  -2 -27   18.80   16.60
   4   2 -27   -8.40   19.60
   4   2 -27  -20.20   15.20
  -4  -2 -27    3.40   13.70
  -4   3 -27    4.70   20.40
  -4  -3  27  -12.80   16.50
  -4   3 -27    6.90   10.60
  -4   3  27  -26.40   22.10
  -4  -3 -27  -18.00   12.50
   4   3 -27  -21.50   19.80
   4   3 -27  -21.20   14.00
  -4  -3 -27    2.70   15.70
  -4  -3 -27    0.70   18.60
  -4   4 -27   10.30   22.50
  -4  -4  27   -6.10   17.80
  -4   4 -27    8.60   11.50
   4  -4 -27  -22.50   21.70
   4   4 -27   11.70   15.20
  -4  -4 -27    0.90   12.90
   4   4 -27  -18.30   24.80
  -4  -4 -27    4.80   20.80
  -4  -4 -27   29.20   19.90
  -4   4  27   -9.80   25.10
  -4   5 -27   16.60   26.10
  -4   5 -27   19.10   22.00
  -4  -5  27   -4.20   20.30
   4   5 -27  -18.50   28.90
  -4  -5 -27  -11.80   23.50
   4  -5  27   21.80   14.70
  -4  -5 -27    4.60   13.50
  -4   6 -27   44.50   36.10
   4  -6 -27  -29.50   24.90
  -4  -6  27    3.40   19.80
  -4   6 -27   24.80   25.70
   4  -6 -27    2.30   17.00
   4  -6 -27  -40.40   17.20
   4   6 -27  -25.40   33.00
  -4  -6 -27    3.00   23.80
  -4  -6 -27   25.30   14.90
   4  -6  27   20.00   15.20
  -5   0 -27    7.20   13.20
  -5   0 -27   12.20   20.10
  -5   0  27   -1.40   17.60
   5   0 -27  -15.60   16.80
  -5   1 -27   50.99   22.60
   5  -1 -27   47.80   21.30
  -5   1 -27   78.59   19.40
  -5  -1  27  117.49   25.70
  -5  -1 -27   85.59   26.00
   5   1 -27   55.79   20.60
  -5  -1 -27   64.19   18.50
  -5  -1 -27  107.39   23.40
  -5   1  27  100.19   24.80
  -5   2 -27    2.10   13.60
   5  -2 -27  -25.00   17.60
  -5   2 -27   -0.90   18.10
  -5  -2  27    7.80   22.50
   5   2 -27   -5.30   15.70
  -5  -2 -27   -3.00   19.40
  -5   2  27  -14.20   19.40
   5   2 -27  -17.30   21.90
  -5  -2 -27    2.30   17.20
  -5  -2 -27   -2.30   14.50
  -5  -3  27  145.89   28.60
  -5   3 -27   69.09   22.70
   5  -3 -27   82.19   24.80
  -5   3 -27   78.69   17.40
   5  -3 -27   36.30   25.40
   5   3 -27  163.18   33.50
  -5  -3 -27   94.59   27.30
  -5   3  27  174.78   32.50
  -5  -3 -27  125.89   21.20
  -5   4 -27   11.20   23.10
  -5   4 -27   29.50   11.10
   5  -4 -27  -45.30   16.50
   5  -4 -27  -71.39   23.90
  -5  -4  27   -3.80   18.10
   5   4 -27  -26.90   24.90
  -5   4  27   -9.70   26.70
  -5  -4 -27   14.90   16.00
  -5  -4 -27   22.40   16.00
  -5  -4 -27  -19.90   23.20
   5  -5 -27    4.30   19.50
   5  -5 -27  -54.89   23.10
  -5  -5  27   17.90   18.90
  -5   5 -27   62.19   28.20
  -5  -5 -27   38.90   26.50
   5  -5  27   63.09   17.60
  -5  -5 -27   24.50   17.30
  -5   5  27  -15.40   27.10
   5   5 -27   15.50   33.90
   6   0 -27    9.30   17.40
   6   0 -27  -38.70   16.50
  -6   0 -27   16.60   14.40
  -6   0  27    5.40   23.20
  -6   0 -27   25.90   22.20
  -6  -1  27  -13.80   19.10
   6  -1 -27   -9.80   17.70
  -6   1 -27    7.50   22.00
  -6   1 -27    9.40   13.70
  -6  -1 -27    5.70   19.00
  -6  -1 -27    6.80   13.80
  -6   1  27  -12.70   19.80
  -6  -2  27   12.80   25.00
   6  -2 -27  -15.70   17.30
  -6   2 -27    7.60   12.80
  -6   2 -27   14.80   22.50
  -6   2  27   -3.00   24.70
  -6  -2 -27    3.20   26.00
  -6  -2 -27   26.70   18.20
  -6  -2 -27   10.70   15.30
  -6   3 -27   20.30   13.50
  -6  -3  27   14.90   23.00
   6  -3 -27   -4.30   18.70
  -6   3 -27   -2.30   16.50
  -6   3  27  -11.30   26.70
  -6  -3 -27   13.20   22.90
   6   3 -27  -16.30   24.50
  -6  -3 -27   21.80   18.40
  -6  -3 -27   22.50   16.20
  -6  -4  27    1.90   23.80
  -6   4 -27   36.50   13.40
  -6   4 -27   10.90   23.20
   6  -4 -27  -13.00   17.70
  -6  -4 -27   31.40   17.90
   6   4 -27   -5.10   28.10
  -6   4  27  -20.30   28.20
  -6  -4 -27   32.50   17.90
  -6  -4 -27    3.40   22.20
  -7   0 -27    4.10   14.30
  -7   0  27   10.00   22.60
  -7   0 -27   -2.90   23.30
  -7   1 -27   72.89   24.50
  -7   1 -27   55.39   17.20
  -7  -1  27   53.99   25.90
  -7  -1 -27   80.99   22.00
  -7  -1 -27   45.80   17.40
  -7   1  27   58.09   29.20
  -7   2 -27   14.80   13.90
  -7  -2  27    8.00   23.30
  -7   2 -27   27.50   27.30
  -7  -2 -27    5.20   16.90
  -7   2  27   -9.50   26.70
  -7  -2 -27    6.00   15.50
   0   0 -28  553.74   53.19
   0   0 -28  585.44   54.89
   0   0 -28  569.14   52.99
   0   0  28  583.34   53.49
   0   0 -28  646.24   54.79
   0   1 -28    9.30   17.40
   0   1 -28    6.00   13.90
   0  -1 -28    6.70   14.30
   0   1 -28   -4.10   13.90
   0   1  28   -6.60   13.20
   0  -1  28   -2.70   11.50
   0  -1 -28   -9.80   11.80
   0   1 -28   -3.40   11.80
   0  -1 -28   22.90   15.30
   0  -2 -28  211.68   24.30
   0   2 -28  197.08   30.00
   0   2  28  192.88   28.00
   0  -2 -28  151.48   23.50
   0  -2  28  204.38   28.60
   0  -2 -28  181.38   25.70
   0   2 -28  224.38   27.60
   0   2 -28  237.88   31.00
   0   3  28  -29.50   14.30
   0   3 -28   -0.30   20.20
   0  -3  28   -3.30   12.00
   0  -3 -28   -8.50   11.90
   0   3 -28   -6.20   18.90
   0   3 -28   -7.80   15.70
   0  -3 -28    3.00   13.80
   0  -3 -28   -3.90   15.50
   0  -4 -28  267.47   34.50
   0  -4 -28  219.58   30.60
   0   4 -28  257.37   41.00
   0   4 -28  230.58   32.60
   0   5 -28  -11.80   27.00
   0   5 -28  -24.30   15.30
   0  -5 -28    7.70   15.30
   0  -5 -28   -2.70   18.30
   0  -5  28    9.80   15.90
   0  -6  28  155.58   28.50
   0  -6 -28  156.18   28.00
   0  -6  28  153.18   19.60
   0   6 -28  175.78   43.00
   0  -6 -28   77.69   24.70
   0  -6 -28  155.18   30.60
   0  -7 -28  -13.90   21.00
   0  -7  28   27.70   13.60
   0   7 -28  -15.00   34.70
   0  -7  28   12.20   16.50
   1   0 -28  -16.40   14.30
  -1   0 -28   10.40   15.90
  -1   0  28    6.40   14.10
   1   0 -28  -17.10   13.20
  -1   0 -28    1.70   12.30
  -1   0 -28    2.90   12.80
   1   0  28  -10.20   10.40
  -1   0 -28   13.00   13.80
  -1   1 -28   24.30   13.50
  -1   1 -28   18.20   15.70
  -1  -1  28   19.30   14.70
  -1   1 -28   20.30   12.10
   1  -1 -28    1.30   14.30
   1   1  28    2.20   12.00
   1  -1 -28    6.00   15.00
  -1   1 -28   12.00   15.50
   1   1 -28   11.90   15.90
   1  -1  28    3.30   11.20
   1   1 -28    9.50   13.00
  -1  -1 -28   21.40   13.90
  -1  -1 -28   24.60   15.00
  -1  -1 -28   11.70   14.40
   1   1 -28    3.80   13.30
  -1   1  28   12.10   15.30
   1   2  28  -16.40   12.10
   1  -2 -28    7.60   15.30
   1  -2 -28   -0.90   14.50
  -1   2 -28   -0.60   14.60
  -1  -2  28    7.30   14.70
  -1   2 -28    5.90   16.90
  -1   2 -28   10.70   13.60
  -1   2 -28   14.00   18.30
  -1  -2 -28    9.10   14.30
  -1  -2 -28    8.50   13.70
   1   2 -28   -2.30   16.10
  -1   2  28   -3.90   16.00
   1   2 -28    2.00   15.80
  -1  -2 -28   12.50   14.10
   1  -2  28    4.50   12.40
  -1   3 -28    9.10   13.10
  -1  -3  28    6.90   13.80
  -1   3 -28   15.30   21.40
  -1   3 -28   29.00   20.90
   1  -3 -28   23.40   16.30
   1  -3 -28   13.50   16.60
  -1  -3 -28   15.40   17.30
  -1   3  28  -14.50   17.60
  -1  -3 -28   23.10   14.80
  -1  -3 -28   24.80   13.50
   1   3 -28   11.80   15.90
   1   3 -28   10.60   19.80
   1  -3  28    8.80   10.70
  -1   4 -28    7.80   23.70
  -1  -4  28   -3.00   12.60
   1  -4 -28    0.80   15.70
  -1   4 -28  -11.30   14.30
  -1   4 -28   14.90   22.90
   1  -4 -28   -4.50   17.20
  -1  -4 -28    6.90   14.90
   1  -4  28    7.40   12.20
   1   4 -28  -12.90   22.40
  -1  -4 -28   -3.90   18.50
   1   4 -28  -22.60   14.70
   1  -5 -28    0.50   16.10
  -1   5 -28   -8.20   24.50
  -1  -5  28   10.20   18.00
  -1   5 -28  -15.30   15.20
   1  -5 -28  -31.30   14.30
  -1   5 -28   10.60   24.30
   1  -5 -28  -10.50   18.60
   1  -5  28   24.20   18.40
   1  -5  28   13.60   11.30
  -1  -5 -28   10.50   18.20
   1   5 -28   26.70   28.50
  -1  -5 -28   20.70   15.70
   1  -6 -28  -17.70   16.50
   1  -6 -28  -11.70   20.60
  -1  -6  28   15.60   20.10
   1  -6 -28  -38.40   15.30
  -1   6 -28    8.10   32.30
   1  -6  28    1.40   11.50
  -1  -6 -28    5.10   20.90
  -1  -6 -28    2.80   18.80
   1  -6  28   18.40   16.60
  -1  -6 -28  -59.99   16.10
   1   6 -28  -21.20   30.10
  -1   7 -28   20.00   36.60
   1  -7 -28  -20.20   23.40
   1  -7 -28  -55.09   15.80
  -1  -7  28   17.70   21.40
   1   7 -28  -14.30   34.70
   1  -7  28   16.60   17.50
  -1  -7 -28  -56.19   16.30
   1  -7  28   27.20   12.60
  -1  -7 -28  -12.10   22.10
   2   0 -28  177.48   28.80
  -2   0 -28  152.08   24.30
  -2   0 -28  170.08   26.20
  -2   0 -28  215.58   29.40
   2   0 -28  164.08   25.40
  -2   0  28  197.48   28.20
  -2   1 -28   28.00   18.10
   2  -1 -28   -3.50   16.60
  -2   1 -28    1.10   12.60
   2  -1 -28   -2.70   16.50
  -2  -1  28   11.60   14.30
  -2   1 -28    3.70   13.00
  -2  -1 -28   -2.20   12.30
   2   1 -28   -2.70   17.00
  -2  -1 -28    6.40   16.40
   2   1 -28   -8.10   13.40
  -2  -1 -28    6.70   14.80
   2   1 -28    0.10   14.60
  -2   1  28   11.80   17.00
   2  -2 -28  340.27   37.10
  -2   2 -28  370.36   42.40
  -2  -2  28  274.87   36.10
  -2   2 -28  370.16   38.60
   2  -2 -28  353.76   39.50
  -2   2 -28  349.07   35.00
  -2   2 -28  293.77   32.40
  -2  -2 -28  390.96   38.60
   2   2 -28  223.48   37.30
  -2   2  28  339.27   40.50
   2   2 -28  363.96   40.00
  -2  -2 -28  282.57   33.90
  -2  -2 -28  279.67   35.30
   2  -3 -28  -17.60   16.90
   2  -3 -28  -18.30   19.50
  -2   3 -28    2.10   22.30
  -2   3 -28   15.20   13.50
  -2   3 -28   18.10   18.30
  -2  -3  28    3.20   14.00
  -2  -3 -28  -12.30   18.10
   2   3 -28  -17.10   17.60
  -2   3  28  -13.30   17.90
  -2  -3 -28    7.00   13.90
  -2  -3 -28   -1.60   13.30
  -2   4 -28  193.88   25.60
  -2   4 -28  227.38   38.80
   2  -4 -28   90.39   20.50
  -2   4 -28  205.18   32.00
   2  -4 -28  149.79   27.80
   2  -4 -28  169.28   30.00
  -2  -4 -28  113.79   22.20
  -2   4  28  130.39   32.50
   2   4 -28  171.88   34.80
  -2  -4 -28  183.58   29.40
  -2   5 -28   37.60   25.50
   2  -5 -28  -20.80   23.20
  -2  -5  28    3.90   16.50
   2  -5 -28  -15.70   16.90
   2  -5 -28  -31.30   13.00
  -2   5 -28    2.20   27.40
   2   5 -28   -1.00   27.60
   2   5 -28  -39.80   16.00
  -2  -5 -28    0.90   21.30
  -2  -5 -28   14.70   16.00
   2  -5  28   11.40   12.20
   2  -6 -28   13.40   16.80
  -2   6 -28   73.59   28.20
  -2   6 -28  101.59   37.70
  -2  -6  28   69.59   25.60
   2  -6 -28   67.59   27.10
   2  -6 -28   48.10   22.10
   2  -6  28   84.09   16.60
  -2  -6 -28   69.59   20.30
  -2  -6 -28   90.69   26.40
   2   6 -28   63.39   33.00
  -3   0 -28   18.00   16.80
   3   0 -28  -28.00   16.70
  -3   0 -28   -9.70   15.90
   3   0 -28  -14.20   15.50
  -3   0 -28  -12.20   11.50
  -3   0  28   -0.50   16.80
  -3   1 -28   12.20   12.50
  -3   1 -28   15.20   18.30
   3  -1 -28   -9.00   15.70
   3  -1 -28   -2.70   17.20
  -3   1 -28   17.60   14.90
  -3  -1  28   19.00   19.10
  -3   1  28   15.90   18.60
  -3  -1 -28    5.00   14.80
  -3  -1 -28   13.30   18.30
  -3  -1 -28  -14.80   11.10
   3   1 -28  -29.60   16.60
   3  -2 -28  -11.00    8.00
  -3   2 -28    8.90   13.30
   3  -2 -28  -27.40   17.00
  -3   2 -28    6.30   12.70
  -3   2 -28    4.20   16.80
   3  -2 -28  -42.70   15.90
  -3  -2  28    3.40   16.20
  -3  -2 -28   -0.60   18.40
  -3  -2 -28   11.40   13.30
  -3  -2 -28  -17.40   11.80
   3   2 -28  -16.00   17.40
  -3   2  28   -6.30   17.30
  -3  -3  28   -4.40   17.80
   3  -3 -28  -16.50   19.30
  -3   3 -28    6.50   12.40
   3  -3 -28  -17.30    9.20
   3  -3 -28  -16.90   17.60
  -3   3 -28   16.40   18.40
  -3   3  28  -10.80   19.10
  -3  -3 -28    6.50   13.40
  -3  -3 -28   16.80   12.30
  -3  -3 -28    4.30   17.20
   3   3 -28   -0.70   21.00
  -3   4 -28   23.80   23.30
   3  -4 -28  -17.30   18.30
  -3  -4  28   -6.20   17.60
  -3   4 -28   11.80   12.60
   3  -4 -28  -46.30   23.30
  -3   4 -28   13.50   23.30
   3  -4 -28  -26.40    9.40
  -3  -4 -28   22.70   20.30
  -3  -4 -28    2.30   13.70
   3   4 -28  -29.40   17.00
   3   4 -28  -14.80   22.70
  -3   4  28  -17.90   20.90
  -3  -4 -28   31.20   13.60
  -3   5 -28   17.90   21.40
   3  -5 -28  -10.00   18.80
   3  -5 -28  -19.60   11.50
   3  -5 -28  -16.60   22.90
  -3  -5  28   15.70   19.80
  -3   5 -28   16.50   26.60
   3   5 -28    9.00   18.00
   3  -5  28   28.40   14.20
  -3  -5 -28   25.50   21.70
  -3  -5 -28   20.40   16.40
  -3   5  28  -68.69   26.20
   3   5 -28  -16.20   27.30
  -3   6 -28   19.70   33.80
  -3  -6  28    7.10   19.20
  -3   6 -28   20.50   23.00
   3  -6 -28  -19.70   13.60
   3  -6 -28  -50.59   26.60
   3  -6 -28  -50.79   17.80
   3   6 -28  -33.50   31.20
  -3  -6 -28    7.40   16.40
   3  -6  28   -2.30   12.40
  -3  -6 -28    4.20   22.90
  -4   0 -28   71.39   19.20
  -4   0 -28  155.98   27.00
   4   0 -28   73.29   21.40
  -4   0 -28   96.39   19.10
   4   0 -28   10.80   20.40
  -4   1 -28    7.80   17.30
  -4   1 -28   17.40   17.80
  -4   1 -28   -5.50   12.20
   4  -1 -28  -44.10   18.10
  -4  -1  28   38.10   22.00
  -4  -1 -28    1.30   10.00
  -4   1  28   34.30   21.90
  -4  -1 -28   20.20   17.30
  -4  -1 -28   13.40   17.20
   4  -2 -28   81.59   27.80
  -4  -2  28  131.69   28.40
  -4   2 -28  141.49   25.00
  -4   2 -28  110.29   27.60
   4  -2 -28   35.00   23.50
  -4  -2 -28  124.69   29.70
   4   2 -28  174.58   30.10
  -4   2  28  145.99   27.50
  -4  -2 -28  113.49   22.60
  -4  -2 -28   66.99   19.60
   4  -3 -28  -42.20   19.40
  -4  -3  28   -3.30   18.00
  -4   3 -28   13.50   18.70
  -4   3 -28   15.00   13.90
  -4   3  28   -8.60   20.70
  -4  -3 -28  -11.30   13.40
   4   3 -28  -25.00   17.80
   4   3 -28  -19.20   20.70
  -4  -3 -28    6.50   16.10
  -4  -3 -28  -12.30   21.80
  -4   4 -28  140.99   29.60
  -4  -4  28   52.59   24.00
   4  -4 -28   87.49   29.10
  -4   4 -28  109.99   20.30
   4  -4 -28   27.80   23.30
   4   4 -28   74.69   23.00
  -4  -4 -28   53.49   18.30
  -4   4  28  112.39   33.50
  -4  -4 -28  122.29   22.90
  -4  -4 -28  118.79   30.90
   4   4 -28  104.99   31.90
   4  -5 -28  -39.10   23.40
  -4  -5  28    2.20   19.40
  -4   5 -28    9.00   26.70
  -4   5 -28    6.90   21.30
  -4  -5 -28    7.90   13.30
   4   5 -28  -38.10   27.40
   4  -5  28   23.90   13.20
  -4  -5 -28    9.60   24.80
  -5   0 -28    1.80   13.80
  -5   0  28  -13.10   17.40
  -5   0 -28   28.10   21.40
   5   0 -28  -32.50   17.30
  -5   0 -28   18.20   19.00
  -5   1 -28   11.70   13.40
  -5  -1  28    7.30   19.40
  -5   1 -28    5.30   15.80
   5  -1 -28  -40.80   16.90
   5   1 -28  -27.30   16.50
  -5  -1 -28    8.70   18.40
  -5  -1 -28    9.00   14.50
  -5   1  28   21.90   19.90
  -5  -1 -28   10.60   22.40
  -5   2 -28    1.50   15.90
   5  -2 -28  -53.29   17.10
  -5  -2  28    0.80   22.80
  -5   2 -28    1.40   11.60
  -5   2  28   -0.20   20.50
  -5  -2 -28    4.10   11.70
  -5  -2 -28    5.00   15.40
  -5  -2 -28   -7.70   21.20
   5   2 -28   -3.80   17.50
  -5  -3  28   15.70   24.20
  -5   3 -28   35.00   21.80
  -5   3 -28   22.80   11.50
   5  -3 -28  -30.80   20.50
   5   3 -28   -2.90   22.80
  -5  -3 -28   30.20   17.10
  -5  -3 -28   34.40   18.80
  -5   3  28  -12.50   25.20
  -5  -3 -28   -1.90   22.70
  -5  -4  28    5.30   20.00
  -5   4 -28   31.30   13.70
   5  -4 -28  -53.49   17.80
  -5   4 -28    6.30   21.00
   5  -4 -28  -46.50   25.60
   5   4 -28  -15.90   26.20
  -5  -4 -28   25.00   17.10
  -5  -4 -28   -1.80   21.20
  -5   4  28  -26.40   24.00
  -5  -4 -28   26.00   18.90
  -5   5 -28   28.50   27.00
   5  -5 -28  -50.79   23.70
  -5  -5  28    7.90   21.70
  -5   5  28  -54.39   25.40
   5   5 -28   -7.40   31.20
  -5  -5 -28   14.50   25.40
  -6   0  28  141.19   28.70
  -6   0 -28  108.79   27.90
   6   0 -28   55.09   23.80
  -6   0 -28   98.59   20.70
  -6  -1  28   -0.30   23.00
  -6   1 -28    8.00   18.60
   6  -1 -28  -16.90   18.40
  -6   1 -28   12.70   13.90
  -6  -1 -28    3.80   20.20
  -6   1  28    2.80   21.20
  -6  -1 -28    0.00   14.50
  -6  -1 -28    3.90   22.80
  -6   2 -28   65.59   18.70
  -6  -2  28   61.59   28.90
   6  -2 -28    0.50   20.90
  -6   2 -28   53.99   20.70
  -6  -2 -28   64.29   19.60
  -6  -2 -28   50.79   18.80
  -6   2  28   44.00   25.10
  -6  -2 -28   55.59   26.00
   6  -3 -28  -36.20   18.80
  -6  -3  28    5.20   22.60
  -6   3 -28   11.90   21.90
  -6   3 -28   30.90   13.40
  -6   3  28  -33.80   22.40
  -6  -3 -28   -7.10   21.00
  -6  -3 -28   11.10   16.90
  -6  -3 -28   17.60   19.10
   6  -4 -28  -50.59   22.90
  -6  -4 -28   52.69   28.80
  -7   0  28    5.00   22.80
  -7   0 -28    3.60   19.90
  -7  -1  28    9.50   25.90
  -7   1 -28   12.70   27.50
  -7  -1 -28   26.70   25.00
  -7   1  28   -2.20   23.20
  -7  -2 -28   21.30   30.00
   0   0 -29   35.10   17.50
   0   0 -29   27.10   15.30
   0   0  29   18.20   14.00
   0   0 -29    9.10   13.30
   0   1 -29    8.00   14.70
   0   1  29    5.60   13.90
   0   1 -29   -7.60   14.00
   0  -1 -29    7.90   15.10
   0   1 -29   -0.40   15.90
   0  -1 -29   -9.60   13.40
   0   1 -29   -9.90   11.60
   0  -1 -29   -4.00   12.30
   0  -1  29    2.40   14.10
   0  -2 -29    5.70   14.60
   0   2 -29    4.40   13.90
   0  -2  29    3.50   13.90
   0   2  29  -15.40   14.50
   0   2 -29   11.30   20.20
   0  -2 -29    5.90   14.60
   0  -2 -29    7.40   14.10
   0   2 -29   -8.40   16.90
   0  -3 -29   -6.20   14.30
   0  -3 -29   -8.60   15.50
   0   3 -29    7.40   20.50
   0   3 -29   12.00   22.90
   0   3  29  -27.30   15.40
   0   3 -29   -3.20   14.50
   0  -3 -29    2.10   12.80
   0  -3  29    1.40   13.30
   0  -4 -29   29.00   18.70
   0  -4 -29   23.60   16.30
   0   4 -29    8.10   17.80
   0   4 -29   35.40   25.60
   0  -4  29   22.00   16.50
   0  -5 -29    2.20   19.00
   0  -5  29    3.10   16.30
   0   5 -29  -18.20   27.00
   0   5 -29  -32.50   16.20
   0  -5 -29   -5.70   15.30
   0  -6 -29  -21.40   18.00
   0   6 -29   12.60   27.90
   0  -6 -29    6.80   20.70
   0  -6  29   43.20   12.10
   0  -6  29   10.00   18.10
   0  -6 -29    8.90   16.80
  -1   0 -29   -0.60   12.90
  -1   0  29    7.00   14.40
  -1   0 -29   15.10   14.30
   1   0 -29    5.60   15.30
  -1   0 -29    0.80   12.90
   1   0  29   -9.60   10.80
  -1   0 -29   -6.60   16.30
   1   0 -29   -9.20   12.90
  -1   1 -29  232.18   29.60
  -1   1 -29  197.28   30.00
   1   1  29  173.18   25.50
   1  -1 -29  225.48   27.80
  -1  -1  29  234.88   28.80
   1  -1 -29  185.48   25.60
  -1   1 -29  209.78   25.50
  -1   1 -29  208.68   27.10
   1  -1  29  202.98   25.70
   1   1 -29  193.48   25.60
   1   1 -29  196.28   27.60
  -1  -1 -29  194.38   27.40
  -1   1  29  207.78   27.20
   1   1 -29  203.18   29.60
  -1  -1 -29  207.38   25.70
  -1  -1 -29  207.28   27.10
  -1   2 -29    5.80   13.70
  -1   2 -29    6.70   18.40
  -1   2 -29   24.30   17.80
  -1  -2  29   10.10   15.90
   1  -2 -29   12.90   15.40
   1  -2 -29   -1.60   16.40
   1   2  29  -13.80   12.50
  -1  -2 -29    5.40   14.10
   1   2 -29    2.40   16.10
  -1  -2 -29    0.60   14.20
  -1  -2 -29   32.20   16.50
   1   2 -29   -6.50   14.90
   1  -2  29    9.20   12.80
  -1   2  29   -0.40   16.90
  -1  -3  29  143.29   28.20
  -1   3 -29  215.18   28.10
  -1   3 -29  274.87   35.10
   1  -3 -29  191.58   27.40
  -1   3 -29  216.68   35.70
   1  -3 -29  174.38   27.70
  -1  -3 -29  213.78   27.90
   1   3 -29  205.28   33.80
   1  -3  29  124.09   24.60
  -1   3  29  182.28   31.80
  -1  -3 -29  212.48   29.70
   1   3 -29  162.48   28.30
  -1  -3 -29  202.68   25.10
  -1  -4  29   -4.20   13.80
  -1   4 -29    4.70   20.10
   1  -4 -29   -2.60   19.80
  -1   4 -29   -3.70   23.40
  -1   4 -29  -15.90   13.10
   1  -4 -29   -5.30   15.50
  -1  -4 -29   20.80   16.10
  -1  -4 -29   22.40   18.00
   1  -4  29   23.90   14.10
  -1   4  29  -39.00   20.00
   1   4 -29    0.50   22.60
   1   4 -29  -16.90   18.50
   1  -5 -29   29.90   19.00
   1  -5 -29   71.89   23.40
   1  -5 -29   62.19   20.50
  -1  -5  29   66.89   22.90
  -1   5 -29  103.09   28.60
  -1   5 -29  113.09   31.40
   1  -5  29   62.99   19.00
   1   5 -29   96.39   30.70
  -1  -5 -29  109.69   26.60
  -1  -5 -29   92.39   23.00
   1  -6 -29   -2.60   17.60
  -1   6 -29  -12.20   31.90
  -1  -6  29   30.80   21.40
   1  -6 -29   -4.70   21.50
   1  -6 -29  -48.80   16.00
   1  -6  29   15.00   12.30
  -1  -6 -29   13.70   21.30
  -1  -6 -29  -15.30   18.00
  -1  -6 -29    2.80   16.50
   1  -6  29   22.30   17.50
   1   6 -29    0.30   30.20
  -2   0 -29   -4.30   12.70
   2   0 -29   -1.50   14.90
   2   0 -29   -0.90   13.20
  -2   0 -29   17.10   15.20
  -2   0 -29   -2.70   14.20
  -2   0  29    7.90   16.20
  -2   1 -29   20.60   14.20
  -2  -1  29   22.60   17.50
  -2   1 -29   21.00   17.00
  -2   1 -29   18.30   16.10
   2  -1 -29    2.70   17.00
  -2   1 -29   12.30   14.00
   2  -1 -29    0.80   17.40
  -2  -1 -29    8.40   16.20
   2   1 -29   -3.60   13.40
  -2   1  29   -4.40   16.40
  -2  -1 -29   14.10   14.30
  -2  -1 -29    5.70   14.80
  -2   2 -29   13.60   13.60
   2  -2 -29   -1.20   18.70
   2  -2 -29   10.90   17.60
  -2   2 -29    5.90   20.00
  -2  -2  29   28.40   19.10
  -2   2 -29   20.90   20.40
  -2   2  29   15.10   17.30
   2   2 -29   10.30   17.80
  -2  -2 -29    8.90   11.50
  -2  -2 -29   27.80   18.60
  -2  -2 -29   32.20   16.30
   2   2 -29    4.60   17.10
  -2   3 -29   -2.50   17.80
  -2  -3  29   -1.10   17.60
   2  -3 -29  -23.40   17.20
  -2   3 -29    1.20   22.10
  -2   3 -29    0.10   13.00
   2  -3 -29    4.40   17.70
  -2  -3 -29    0.90   14.60
  -2  -3 -29    5.70   19.30
   2   3 -29  -36.00   14.90
  -2   3  29  -24.70   19.90
  -2  -3 -29   13.30   16.80
   2   3 -29   14.70   19.60
   2  -4 -29   10.80   18.60
  -2   4 -29   14.50   15.20
  -2  -4  29    2.20   16.20
  -2   4 -29   20.10   26.10
   2  -4 -29    5.60   20.10
   2  -4 -29   -2.10   13.30
  -2   4 -29   20.30   19.90
  -2  -4 -29   -0.50   14.70
   2   4 -29   -0.70   19.60
  -2   4  29   -1.80   23.50
  -2  -4 -29    1.40   17.10
  -2  -5  29   16.60   19.80
   2  -5 -29  -41.70   12.30
  -2   5 -29  -12.30   23.10
  -2   5 -29   18.30   30.00
   2  -5 -29    1.40   21.60
   2  -5 -29   -4.30   18.60
   2   5 -29  -32.30   21.80
  -2  -5 -29   -0.10   19.10
  -2  -5 -29    8.30   16.60
  -2   6 -29   13.30   28.00
  -2  -6  29   13.90   21.80
   2  -6 -29   -2.10   19.40
   2  -6 -29  -24.70   13.90
   2  -6 -29   -8.10   23.30
  -2   6 -29   23.60   29.90
  -2  -6 -29   14.00   17.60
  -2  -6 -29   32.30   22.90
   2   6 -29  -23.60   30.70
   2  -6  29   22.20   14.30
  -3   0 -29   -2.50   12.10
  -3   0 -29   -8.30   13.80
  -3   0 -29    0.30   17.00
  -3   0  29    4.50   18.20
   3   0 -29  -23.60   15.20
   3   0 -29  -21.40   17.80
   3  -1 -29  143.29   28.50
   3  -1 -29  184.78   28.50
  -3   1 -29  145.59   23.40
  -3   1 -29  119.39   23.50
  -3   1 -29  132.69   27.60
  -3  -1  29  187.38   30.00
  -3  -1 -29  172.98   27.50
  -3  -1 -29   94.29   22.00
   3   1 -29  111.79   27.00
  -3   1  29  190.48   29.10
  -3  -1 -29  123.09   24.70
  -3   2 -29   -1.10   19.40
  -3  -2  29    3.10   19.90
  -3   2 -29   -8.40   12.30
   3  -2 -29  -13.60   18.70
   3  -2 -29  -11.10   19.80
  -3   2 -29   13.00   13.40
  -3   2  29   -3.40   19.80
  -3  -2 -29   -2.70   13.40
   3   2 -29  -12.90   16.80
  -3  -2 -29    9.90   14.90
  -3  -2 -29  -15.50   15.90
   3  -3 -29   54.19   23.40
  -3  -3  29   57.69   20.80
  -3   3 -29   99.69   29.30
   3  -3 -29   42.70   23.60
  -3   3 -29   74.99   22.60
   3  -3 -29   31.60   12.70
  -3   3 -29   75.89   17.60
   3   3 -29   91.09   25.90
  -3  -3 -29   33.60   17.30
  -3  -3 -29   74.99   22.90
  -3   3  29   85.09   27.70
  -3  -3 -29   62.39   18.80
  -3   4 -29   -0.10   22.60
   3  -4 -29   -5.80   19.40
   3  -4 -29  -34.30   10.50
  -3  -4  29   -0.20   15.90
  -3   4 -29   32.10   25.40
  -3   4 -29    7.40   15.30
   3  -4 -29  -20.30   21.80
  -3   4  29   -7.80   25.60
   3   4 -29  -43.60   15.20
  -3  -4 -29   -6.70   14.60
   3   4 -29  -20.50   22.00
  -3  -4 -29    7.40   19.60
  -3   5 -29  123.39   34.50
  -3   5 -29  156.28   29.40
   3  -5 -29   36.50   16.30
  -3  -5  29   72.29   22.30
   3  -5 -29   97.29   30.00
   3  -5 -29   73.99   27.80
  -3  -5 -29   87.09   21.90
  -3   5  29   75.59   33.00
   3   5 -29   60.99   22.70
   3   5 -29  119.09   32.90
  -3  -5 -29  127.29   28.40
   3  -6 -29  -42.00   23.20
  -3   6 -29    2.20   33.20
  -3   6 -29   -8.30   26.20
  -3  -6  29   20.80   23.60
   3  -6 -29  -36.70   13.90
   3  -6  29   20.30   15.10
  -3  -6 -29    5.90   21.90
   3   6 -29  -21.40   27.50
  -4   0  29   14.70   19.90
   4   0 -29  -42.20   15.10
  -4   0 -29   -2.90   16.10
  -4   0 -29    9.40   12.30
  -4   0 -29   19.50   18.70
  -4   1 -29   23.20   17.70
  -4  -1  29   11.90   21.00
   4  -1 -29  -44.90   17.70
  -4   1 -29    3.60   16.20
   4  -1 -29  -52.89   18.10
  -4   1 -29   -1.40   11.80
  -4  -1 -29   10.00   16.30
  -4   1  29    9.50   18.00
  -4  -1 -29    6.60   19.20
  -4  -1 -29   -7.10   12.40
   4  -2 -29  -43.40   17.60
   4  -2 -29  -12.50   22.10
  -4   2 -29   23.60   16.50
  -4   2 -29   12.70   18.30
  -4  -2  29   20.00   22.30
  -4   2 -29   12.10   12.50
  -4  -2 -29   -0.10   13.30
  -4  -2 -29   13.60   16.10
  -4   2  29    1.80   18.70
  -4  -2 -29    6.20   18.50
  -4  -3  29   15.00   23.20
  -4   3 -29   28.80   20.30
  -4   3 -29   24.00   13.60
   4  -3 -29  -43.10   18.20
   4  -3 -29  -17.40   21.40
  -4  -3 -29   -8.00   19.30
  -4  -3 -29   10.00   14.20
   4   3 -29   -5.00   22.80
  -4  -3 -29   25.50   15.70
  -4   3  29   -7.20   23.70
   4   3 -29  -37.10   16.00
  -4   4 -29   19.30   13.80
   4  -4 -29  -23.10   25.70
   4  -4 -29  -52.69   18.50
  -4  -4  29  -10.20   17.50
  -4   4 -29   43.70   26.10
   4   4 -29  -18.80   16.80
   4   4 -29  -15.90   24.10
  -4   4  29  -15.40   23.20
  -4  -4 -29   22.60   14.50
  -4  -4 -29   18.50   24.30
  -4  -4 -29   63.49   21.30
  -4  -5  29    7.30   17.50
   4  -5 -29  -52.39   18.40
  -4   5 -29   19.80   28.90
  -4   5 -29    0.50   21.30
   4  -5 -29  -44.00   23.80
  -4  -5 -29   21.60   15.80
  -4  -5 -29  -15.20   24.80
  -4   5  29  -42.00   25.20
   4   5 -29  -40.50   28.10
  -5   0  29   20.80   22.30
  -5   0 -29    4.10   13.40
  -5   0 -29   -5.70   18.40
  -5   0 -29   -1.40   18.30
  -5  -1  29   82.59   24.20
   5  -1 -29   -5.50   21.30
  -5   1 -29   69.59   24.60
  -5   1 -29   34.30   14.90
  -5   1 -29   32.90   21.10
  -5  -1 -29   59.29   21.80
  -5  -1 -29   40.40   24.20
  -5  -1 -29   47.80   17.60
   5   1 -29   -7.40   19.20
  -5   1  29   81.59   26.70
   5  -2 -29  -20.70   19.90
  -5   2 -29    7.30   20.20
  -5  -2  29   -3.00   23.00
  -5   2 -29   23.60   12.60
  -5   2  29  -28.20   18.80
   5   2 -29  -36.50   17.50
  -5  -2 -29    6.50   15.70
  -5  -2 -29    7.90   18.20
  -5  -2 -29    1.80   19.20
  -5  -3  29  124.59   32.20
  -5   3 -29   88.89   29.20
  -5   3 -29   79.29   17.80
   5  -3 -29   16.30   25.70
  -5   3  29  119.19   29.90
  -5  -3 -29  131.09   25.30
  -5  -3 -29   72.29   20.30
  -5  -3 -29   85.89   27.60
   5  -4 -29  -55.39   22.10
  -5   4 -29   28.20   15.10
  -5   4 -29   -4.10   21.10
  -5  -4  29    0.10   20.60
  -5   4  29  -23.00   24.10
  -5  -4 -29   14.70   15.90
  -5  -4 -29    3.10   23.30
  -5  -4 -29   31.80   23.50
   5   4 -29  -16.40   26.70
   6   0 -29  -35.80   19.00
  -6   0 -29    9.70   21.70
  -6   0 -29   20.30   15.40
  -6   0  29    4.10   20.50
  -6   1 -29   12.90   16.50
  -6  -1  29    7.70   24.20
  -6   1 -29    9.30   21.00
   6  -1 -29  -34.10   18.40
  -6  -1 -29   30.30   16.90
  -6  -1 -29   17.70   22.10
  -6  -1 -29   10.70   22.90
  -6   1  29    0.30   24.00
  -6   2 -29   21.00   21.80
  -6   2 -29   31.10   14.90
   6  -2 -29  -46.30   19.50
  -6  -2  29   26.90   26.80
  -6  -2 -29   33.90   26.00
  -6  -2 -29   -6.00   20.20
  -6   2  29   11.70   22.40
  -6  -2 -29   20.60   16.60
   6  -3 -29  -63.79   24.10
  -6  -3  29    8.90   24.10
   6  -3 -29  -43.90   19.70
  -6   3 -29   18.10   24.70
  -6  -3 -29   16.40   24.90
  -6  -3 -29   26.80   20.20
  -6   3  29  -16.60   23.20
   0   0 -30  210.38   28.00
   0   0 -30  173.58   26.30
   0   0  30  183.38   27.00
   0   0 -30  176.58   24.60
   0   1 -30   -9.70   11.00
   0  -1 -30   -8.30   12.30
   0   1 -30   -3.90   14.30
   0   1 -30    1.30   18.30
   0   1 -30   -0.20   14.00
   0  -1 -30   -5.30   15.40
   0  -1 -30    2.50   14.20
   0  -1  30    0.20   13.30
   0   1  30   -7.80   13.90
   0   2 -30   64.39   23.80
   0  -2 -30   44.30   16.80
   0  -2  30   57.29   17.90
   0   2 -30   29.20   16.20
   0  -2 -30   45.10   17.00
   0  -2 -30   49.30   17.50
   0   2 -30   42.90   19.30
   0   2  30   26.50   16.70
   0   3  30  -28.90   16.00
   0  -3  30    7.20   15.20
   0  -3 -30   -2.80   15.60
   0   3 -30   -5.70   14.60
   0   3 -30  -14.30   19.90
   0   3 -30    4.70   20.40
   0  -3 -30    7.40   15.30
   0   4 -30   80.29   29.60
   0  -4  30   39.10   18.90
   0  -4 -30   72.59   21.50
   0  -4 -30   64.99   19.50
   0   4 -30   51.69   18.90
   0  -5  30    6.60   16.10
   0  -5 -30  -15.50   15.10
   0   5 -30  -35.70   29.20
   0   5 -30  -12.40   23.20
   0  -5 -30    7.90   21.50
   0  -6 -30   58.09   20.60
   0  -6  30   67.89   23.20
   0  -6 -30   43.10   22.30
   0  -6 -30   66.09   26.50
   0   6 -30   57.39   31.50
  -1   0  30    1.00   14.10
  -1   0 -30    2.60   14.20
   1   0 -30   -5.70   15.20
  -1   0 -30   -4.60   12.10
  -1   0 -30   -1.70   17.10
   1   0  30   -5.80   11.20
   1   0 -30  -14.80   12.70
  -1   1 -30    9.80   12.10
  -1  -1  30   11.60   14.30
  -1   1 -30    5.00   17.80
  -1   1 -30   10.80   14.80
   1  -1 -30    4.70   13.20
   1  -1 -30    1.10   15.10
   1   1  30   -0.60   12.90
  -1   1 -30   10.00   13.70
   1  -1  30    2.40   12.00
  -1  -1 -30   10.80   14.50
  -1  -1 -30   11.00   15.80
  -1  -1 -30   13.80   15.20
  -1   1  30    4.70   15.00
   1   1 -30    5.90   16.10
   1  -2 -30   -5.60   16.20
  -1  -2  30   17.50   17.00
   1  -2 -30   -1.30   11.70
  -1   2 -30   16.10   18.70
  -1   2 -30    5.50   17.20
  -1   2 -30   18.20   14.70
  -1  -2 -30    8.80   14.90
   1   2 -30   -9.40   16.00
  -1  -2 -30   11.20   14.70
   1   2 -30   -7.10   14.90
  -1   2  30   -3.90   15.80
  -1  -2 -30   19.20   15.50
   1  -2  30   12.30   13.70
  -1  -3  30   12.70   16.60
   1  -3 -30    8.30   18.50
  -1   3 -30   21.40   21.30
  -1   3 -30   20.50   22.00
   1  -3 -30    7.20   15.80
  -1   3 -30   14.80   16.00
  -1  -3 -30   11.00   15.70
  -1   3  30  -15.70   17.70
   1   3 -30  -13.90   18.30
   1  -3  30   19.20   14.60
   1   3 -30    0.00   17.90
  -1  -3 -30   11.20   17.90
  -1  -3 -30    9.20   15.00
   1  -4 -30  -12.00   17.20
  -1   4 -30   -5.10   19.50
  -1   4 -30   -1.40   15.70
   1  -4 -30    9.90   17.00
  -1  -4  30   12.70   15.50
  -1   4 -30   15.50   24.80
  -1   4  30   -8.60   19.00
   1   4 -30  -21.10   15.60
  -1  -4 -30    8.20   16.20
   1  -4  30    2.50   11.90
  -1  -4 -30    7.80   17.50
   1   4 -30   -4.80   19.40
  -1   5 -30   -5.30   25.30
   1  -5 -30    8.40   17.50
  -1   5 -30   12.10   24.40
  -1  -5  30   -2.70   14.20
   1  -5 -30   -6.30   16.00
   1  -5 -30    6.20   19.90
   1   5 -30    3.40   26.40
   1   5 -30  -37.70   14.90
  -1  -5 -30    0.90   16.20
  -1  -5 -30    7.80   19.40
   1  -5  30   26.50   15.80
   1  -6 -30  -47.60   16.40
   1  -6 -30  -15.30   20.80
  -1  -6  30    9.60   20.30
   1  -6 -30  -10.30   17.90
  -1   6 -30    4.90   31.50
  -1  -6 -30  -18.50   18.20
  -1  -6 -30    2.00   17.00
  -1  -6 -30  -19.70   23.00
   1   6 -30  -11.00   27.00
   1  -6  30   36.70   13.10
  -2   0 -30   67.99   28.60
  -2   0  30   52.09   20.00
   2   0 -30   37.90   20.10
  -2   0 -30   35.80   17.70
  -2   0 -30   50.39   20.30
   2   0 -30   21.20   17.40
  -2   0 -30   45.00   17.20
   2  -1 -30    7.50   17.20
   2  -1 -30    7.40   17.50
  -2   1 -30   12.50   17.90
  -2   1 -30   16.10   18.00
  -2   1 -30   10.00   14.00
  -2  -1  30   10.20   18.00
  -2   1 -30   -1.50   13.20
  -2  -1 -30   -6.90   16.60
  -2  -1 -30    7.70   16.60
  -2  -1 -30    7.70   14.60
  -2   1  30   -8.30   14.60
   2   1 -30   13.40   18.80
  -2   2 -30  145.09   30.20
   2  -2 -30   94.19   24.30
   2  -2 -30  132.19   24.60
  -2  -2  30  108.99   24.00
  -2   2 -30  110.89   21.50
  -2   2 -30  148.49   28.50
   2   2 -30   90.89   26.60
  -2  -2 -30  146.19   25.30
   2   2 -30  124.69   24.50
  -2   2  30  116.59   25.80
  -2  -2 -30  114.29   25.10
  -2  -2 -30  106.99   22.50
   2  -3 -30   -4.70   17.60
  -2   3 -30    8.00   13.50
   2  -3 -30  -33.10   19.20
  -2  -3  30    1.60   15.90
  -2   3 -30    5.80   18.70
  -2   3 -30    6.20   19.50
   2   3 -30  -30.50   16.80
  -2  -3 -30   11.40   16.50
  -2   3  30  -28.40   19.20
  -2  -3 -30    3.10   18.80
  -2  -3 -30   -6.80   14.90
   2   3 -30   -8.20   18.60
  -2   4 -30   76.69   23.70
   2  -4 -30   56.79   16.70
  -2   4 -30   52.29   18.10
   2  -4 -30   56.19   21.80
  -2   4 -30   63.49   29.80
  -2  -4  30   28.90   18.90
   2  -4 -30   37.20   24.50
  -2   4  30   38.10   26.30
  -2  -4 -30   64.49   21.60
   2   4 -30   58.59   26.50
  -2  -4 -30   55.79   19.70
  -2   5 -30   -1.80   21.40
  -2  -5  30    2.30   17.90
   2  -5 -30   -0.60   19.10
   2  -5 -30  -19.00   20.60
  -2   5 -30   18.80   29.80
   2  -5 -30  -35.30   14.10
   2   5 -30  -19.90   25.30
  -2  -5 -30    1.20   19.90
  -2  -5 -30    7.90   17.00
   2  -6 -30  -18.50   15.70
  -2  -6  30   40.90   20.40
   2  -6 -30   -1.90   26.50
  -2  -6 -30   35.70   23.30
   2  -6  30   54.49   16.50
  -3   0 -30   13.60   17.60
   3   0 -30  -13.50   15.90
   3   0 -30   10.50   19.80
  -3   0  30   28.50   19.00
  -3   0 -30   23.20   18.90
  -3   0 -30    6.10   14.10
  -3  -1  30   11.30   19.00
  -3   1 -30    1.30   13.30
   3  -1 -30   -6.60   19.60
   3  -1 -30  -17.60   18.50
  -3   1 -30   26.90   18.20
  -3   1 -30   -1.40   14.40
  -3  -1 -30    6.70   18.80
  -3   1  30    4.30   16.20
   3   1 -30   -9.10   18.40
  -3  -1 -30   19.00   15.10
  -3  -1 -30    4.80   14.40
  -3  -2  30   11.30   20.50
   3  -2 -30   -4.80   19.50
  -3   2 -30   13.20   21.50
   3  -2 -30  -42.10   19.50
  -3   2 -30    4.80   15.30
   3   2 -30  -34.10   17.60
  -3  -2 -30    7.90   15.40
  -3  -2 -30    8.70   15.00
  -3  -2 -30    4.70   17.40
  -3   2  30   10.10   18.00
  -3   3 -30    0.80   14.90
   3  -3 -30  -30.70   22.50
  -3   3 -30   11.30   22.10
  -3   3 -30   18.80   21.90
   3  -3 -30  -20.60   19.20
  -3  -3  30    9.50   18.00
  -3  -3 -30    3.50   15.30
  -3  -3 -30   -1.30   20.80
   3   3 -30   -1.00   20.00
  -3  -3 -30   19.00   16.90
  -3   3  30   -4.70   19.50
  -3   4 -30   25.40   25.80
   3  -4 -30  -26.50   16.20
  -3  -4  30   14.10   20.40
   3  -4 -30  -14.40   22.00
  -3   4 -30    5.90   15.10
   3  -4 -30  -20.80   19.20
  -3   4 -30   15.50   24.40
  -3  -4 -30    2.40   20.20
  -3   4  30  -17.60   24.10
  -3  -4 -30   21.00   16.90
   3   4 -30   -7.90   23.30
  -3  -5  30    2.10   19.40
   3  -5 -30  -10.40   12.70
  -3   5 -30   23.70   31.90
   3  -5 -30    7.70   27.00
   3  -5 -30  -10.70   20.40
  -3   5 -30   18.80   25.80
  -3   5  30  -44.10   25.20
  -3  -5 -30    5.50   24.00
  -3  -5 -30   14.40   17.70
   3   5 -30  -40.40   16.30
   3   5 -30   -2.10   27.80
  -4   0 -30   78.89   22.90
  -4   0 -30   21.10   14.50
  -4   0  30  108.79   25.50
  -4   0 -30   54.69   18.70
   4   0 -30  -13.50   20.50
  -4   1 -30   14.60   20.30
  -4   1 -30   21.00   16.60
   4  -1 -30  -22.50   19.70
   4  -1 -30  -27.20   20.10
  -4   1 -30    6.10   12.50
  -4  -1  30   18.40   22.20
  -4  -1 -30   -4.40   17.00
  -4  -1 -30   -3.60   15.40
  -4   1  30    0.30   17.50
  -4  -1 -30    7.70   10.80
  -4   2 -30   33.10   15.60
  -4   2 -30   69.69   23.00
   4  -2 -30   10.00   22.40
  -4  -2  30   60.99   23.00
   4  -2 -30   16.90   22.30
  -4  -2 -30   28.20   15.60
  -4  -2 -30   47.80   24.90
  -4   2  30   81.49   25.50
  -4  -2 -30   28.90   16.80
  -4   3 -30    4.60   14.90
   4  -3 -30  -41.60   23.50
  -4  -3  30   -7.60   19.10
  -4   3 -30   17.60   21.40
   4  -3 -30  -29.80   19.60
  -4  -3 -30   -0.40   20.60
  -4   3  30   -6.00   20.80
  -4  -3 -30   16.60   14.10
  -4  -3 -30   11.50   14.20
  -4   4 -30   62.39   18.50
   4  -4 -30   -3.10   22.90
  -4   4 -30   52.69   27.40
   4  -4 -30   20.20   28.90
  -4  -4  30   55.09   27.30
  -4   4 -30   74.99   33.90
  -4  -4 -30   63.09   25.80
  -4  -4 -30   42.60   17.60
   4   4 -30   36.10   26.90
  -4   4  30   62.09   27.50
   4   4 -30   -4.30   19.70
   4  -5 -30  -46.20   27.30
  -4  -5 -30   -2.50   26.10
  -5   0 -30    8.70   13.90
  -5   0 -30   23.90   19.40
  -5   0  30  -12.20   21.20
  -5   0 -30   14.90   20.60
   5  -1 -30  -47.90   20.00
  -5   1 -30   20.00   21.00
  -5  -1  30   -1.70   22.90
  -5   1 -30   32.80   15.70
  -5   1 -30   23.60   20.90
  -5  -1 -30   16.00   19.10
  -5  -1 -30   16.80   19.80
  -5   1  30   11.00   19.90
  -5  -1 -30    0.00   13.60
  -5   2 -30   26.30   14.10
  -5  -2  30    8.90   24.80
   5  -2 -30  -36.60   22.70
  -5   2 -30   17.40   22.70
  -5  -2 -30   24.20   19.40
  -5  -2 -30   14.80   15.20
  -5  -2 -30    3.90   23.40
  -5   2  30   -9.00   23.20
  -5   3 -30   22.90   12.70
   5  -3 -30  -43.80   21.20
  -5   3 -30   35.50   26.50
  -5  -3  30    6.70   26.20
  -5  -3 -30    8.70   15.30
  -5  -3 -30    6.20   22.00
  -5  -3 -30   44.80   19.50
  -5   3  30   -8.60   25.00
   5  -4 -30  -50.29   24.40
  -5  -4 -30   -1.10   23.30
   6   0 -30    8.40   23.40
  -6   0 -30   67.39   27.10
  -6   0 -30   71.29   19.40
  -6   0 -30   82.29   27.00
  -6   0  30   99.69   29.90
  -6   1 -30   28.40   21.80
  -6   1 -30   23.60   15.30
   6  -1 -30  -91.09   33.40
  -6  -1  30   15.40   22.80
  -6  -1 -30    1.50   24.30
  -6   1  30   -3.10   21.90
  -6  -1 -30   31.10   23.60
  -6  -1 -30   27.90   16.20
   6  -2 -30  -23.70   22.60
  -6  -2  30   39.10   28.30
  -6   2 -30   37.80   24.20
  -6  -2 -30   68.89   25.20
  -6  -2 -30   33.40   23.80
  -6   2  30   21.50   23.80
   0   0  31    2.00   13.00
   0   0 -31    4.20   14.50
   0   0 -31   -7.50   13.00
   0   0 -31    7.50   17.40
   0  -1 -31   13.10   16.70
   0  -1 -31   -7.20   13.40
   0  -1 -31   -3.20   13.10
   0   1  31  -11.70   13.40
   0  -1  31   -0.80   14.60
   0   1 -31    3.60   19.50
   0   1 -31    8.90   14.40
   0   2 -31   -1.70   14.60
   0  -2 -31   12.00   15.50
   0   2  31   -6.10   14.10
   0  -2  31    3.80   15.60
   0  -2 -31    2.80   15.10
   0  -2 -31    1.60   14.70
   0   2 -31    0.30   18.60
   0   2 -31   -2.10   17.20
   0  -3 -31   -7.90   17.70
   0   3 -31   -7.80   20.00
   0   3  31  -21.20   15.60
   0  -3 -31   -7.00   15.00
   0   3 -31  -12.90   17.10
   0   3 -31    1.50   20.70
   0  -3  31   -6.10   15.60
   0   4 -31   -9.50   15.00
   0  -4 -31    6.10   15.70
   0  -4 -31    1.50   17.30
   0   4 -31   21.60   24.90
   0  -4  31   14.90   14.30
   0  -5 -31  -14.70   18.00
   0  -5  31   13.20   15.60
   0  -5 -31   -1.90   16.40
   0   5 -31    5.20   23.70
   0  -6 -31    5.90   20.50
   1   0 -31    1.50   15.80
  -1   0 -31    5.80   13.90
   1   0 -31   -0.60   13.60
  -1   0 -31    1.60   17.40
  -1   0 -31   13.20   14.90
  -1   0  31   -4.10   14.40
  -1   1 -31   23.20   18.90
   1  -1 -31   34.70   17.50
  -1   1 -31   19.70   13.40
  -1  -1  31   23.80   17.10
  -1   1 -31   36.10   20.00
   1  -1 -31    4.30   15.70
  -1   1 -31   16.00   14.50
   1   1 -31    8.40   16.80
  -1  -1 -31   18.10   15.60
  -1  -1 -31   35.90   17.00
  -1  -1 -31   21.20   18.00
  -1   1  31   22.20   16.80
  -1   2 -31   -4.40   17.20
  -1   2 -31   -1.10   14.00
   1  -2 -31    8.10   15.30
   1  -2 -31    8.10   16.10
  -1  -2  31   -5.50   16.50
  -1   2 -31   24.90   18.70
  -1  -2 -31   -1.30   14.40
   1   2 -31   -6.70   18.50
  -1   2  31   -3.00   16.40
   1   2 -31   -1.80   16.10
  -1  -2 -31   14.00   16.20
  -1  -2 -31    5.40   16.40
  -1   3 -31   48.60   22.10
  -1   3 -31   42.00   23.40
  -1  -3  31   34.40   18.50
   1  -3 -31   31.40   17.80
  -1   3 -31   37.50   15.90
   1  -3 -31   27.60   18.10
  -1   3  31   24.70   20.60
  -1  -3 -31   36.10   19.70
  -1  -3 -31   42.90   17.70
   1   3 -31   30.40   18.90
   1   3 -31   36.80   20.70
  -1  -4  31   13.00   16.70
   1  -4 -31    5.70   16.70
  -1   4 -31  -10.40   16.00
  -1   4 -31   10.90   25.30
  -1   4 -31    4.20   23.50
   1  -4 -31   -1.80   17.70
   1   4 -31   -7.10   21.60
  -1  -4 -31    9.40   16.90
  -1  -4 -31   10.00   18.40
  -1   4  31  -54.29   19.90
   1   4 -31  -11.70   17.00
  -1   5 -31   29.20   28.20
   1  -5 -31   20.60   20.80
  -1  -5  31   32.00   18.30
   1  -5 -31    4.20   17.30
  -1   5 -31   11.40   25.10
   1  -5 -31    8.40   17.90
  -1  -5 -31   12.80   19.70
   1   5 -31   22.90   28.00
  -1  -5 -31    9.40   16.90
   1   5 -31  -26.60   19.80
  -2   0 -31   12.40   14.80
  -2   0  31   -4.30   16.20
   2   0 -31   -0.70   17.50
  -2   0 -31   10.50   18.40
  -2   0 -31    1.30   13.40
   2   0 -31  -23.80   14.60
   2  -1 -31  -10.10   14.70
  -2   1 -31    5.20   19.30
  -2  -1  31    4.40   17.00
  -2   1 -31  -10.50   13.20
   2  -1 -31  -10.60   17.30
  -2   1 -31    8.90   14.90
  -2   1 -31   12.40   18.80
  -2  -1 -31   -4.70   17.20
  -2  -1 -31   -3.80   14.60
   2   1 -31  -11.10   18.10
  -2  -1 -31    0.50   16.80
  -2   1  31    5.10   16.90
  -2   2 -31   28.00   21.80
  -2   2 -31    1.70   14.00
  -2   2 -31   14.10   20.00
   2  -2 -31  -20.10   18.20
   2  -2 -31   18.40   18.50
  -2  -2  31   15.70   19.30
  -2  -2 -31    6.20   16.50
  -2  -2 -31    4.90   16.40
   2   2 -31  -15.30   17.90
  -2   2  31    0.90   18.10
  -2  -2 -31   17.40   16.40
  -2   3 -31   -4.40   18.90
  -2   3 -31   -4.70   15.20
  -2  -3  31  -11.90   19.10
   2  -3 -31    9.20   18.70
   2  -3 -31  -18.30   17.50
  -2   3 -31    3.30   21.80
   2   3 -31   -5.10   19.10
  -2  -3 -31   13.10   16.70
   2   3 -31  -15.10   17.90
  -2  -3 -31    5.90   16.90
  -2   3  31  -34.70   19.10
  -2  -3 -31    0.90   15.80
  -2   4 -31   20.00   16.60
  -2  -4  31    4.00   18.20
  -2   4 -31   -4.50   25.50
   2  -4 -31    7.60   14.00
   2  -4 -31   -2.10   18.20
   2  -4 -31   -7.60   19.60
  -2   4 -31   26.90   24.40
  -2  -4 -31    0.50   17.90
   2   4 -31  -35.20   16.80
  -2  -4 -31   13.80   17.40
  -2   4  31  -26.70   22.30
   2   4 -31   -8.60   21.80
  -2   5 -31   -2.40   26.00
  -2  -5  31   11.60   15.20
  -2   5 -31   -7.20   28.30
   2  -5 -31  -23.10   15.30
   2  -5 -31  -13.60   18.30
   2  -5 -31  -26.30   20.20
  -2  -5 -31   -7.90   19.60
   2   5 -31   -9.30   26.20
  -2  -5 -31   12.50   17.90
  -3   0 -31    5.70   18.40
  -3   0 -31    2.40   19.50
   3   0 -31  -29.00   17.90
  -3   0 -31    1.70   14.50
  -3   0  31   -1.60   18.40
  -3   1 -31   73.99   24.60
   3  -1 -31   26.00   22.00
  -3  -1  31   52.59   19.60
   3  -1 -31    9.20   19.90
  -3   1 -31   60.59   19.20
  -3   1 -31   42.10   16.70
  -3  -1 -31   38.80   17.70
   3   1 -31   35.00   22.00
  -3  -1 -31   30.60   18.70
  -3   1  31   48.50   19.30
  -3  -1 -31   41.70   21.20
   3  -2 -31  -29.10   17.60
  -3   2 -31   16.30   22.00
  -3   2 -31   30.20   22.50
  -3  -2  31   -1.10   17.90
  -3   2 -31    6.40   14.50
   3  -2 -31  -24.70   18.70
  -3   2  31    1.40   20.00
   3   2 -31  -32.30   18.60
  -3  -2 -31    0.50   16.90
  -3  -2 -31  -11.50   19.00
  -3  -2 -31   -1.50   15.10
  -3   3 -31   35.90   26.90
  -3   3 -31   16.40   15.00
   3  -3 -31   -9.30   15.00
  -3   3 -31   32.50   24.60
  -3  -3  31   14.90   22.20
   3  -3 -31  -17.50   19.60
  -3  -3 -31   29.10   19.60
  -3  -3 -31   20.00   21.80
  -3   3  31   -7.50   22.70
  -3  -3 -31   15.90   16.80
  -3  -4  31   -4.10   20.70
  -3   4 -31    1.30   13.50
  -3   4 -31   18.20   28.90
   3  -4 -31   -6.90   20.90
   3  -4 -31  -42.20   24.20
  -3   4 -31   13.00   24.80
  -3  -4 -31   17.30   17.60
  -3  -4 -31   -7.10   20.20
  -3   4  31   -6.40   22.10
   3   4 -31  -13.90   22.40
  -3  -5  31   27.00   21.20
   3  -5 -31    8.50   24.50
  -3   5 -31   55.19   34.00
  -3   5 -31   58.59   29.50
   3   5 -31   33.30   30.10
  -3  -5 -31   37.80   26.40
   4   0 -31  -44.10   18.90
  -4   0 -31   13.70   14.30
  -4   0 -31   -3.00   18.70
  -4   0  31   26.30   22.30
  -4   0 -31    4.60   16.30
   4  -1 -31  -48.50   19.50
  -4  -1  31   11.10   22.40
  -4   1 -31   28.70   17.80
   4  -1 -31  -16.90   20.80
  -4   1 -31    6.00   20.60
  -4   1 -31   19.40   14.90
  -4  -1 -31    0.40   13.80
  -4  -1 -31   20.60   17.90
  -4  -1 -31    9.90   20.70
  -4   1  31   16.00   21.80
  -4  -2  31   -1.40   20.10
  -4   2 -31    7.40   13.90
  -4   2 -31   -0.40   23.30
   4  -2 -31  -13.40   21.60
   4  -2 -31  -40.10   21.90
  -4  -2 -31   23.50   15.90
  -4  -2 -31   14.10   14.70
  -4   2  31    7.00   19.50
  -4  -2 -31   11.90   20.40
   4  -3 -31  -31.40   24.90
  -4   3 -31    9.70   14.60
   4  -3 -31  -14.80   21.50
  -4   3 -31   14.30   25.00
  -4  -3  31   -6.30   20.80
  -4  -3 -31    5.10   21.10
  -4  -3 -31   42.00   15.30
  -4  -3 -31   15.40   15.70
  -4   3  31  -17.70   22.90
  -4   4 -31   22.10   26.90
  -4   4 -31   12.80   16.10
   4  -4 -31  -26.30   24.20
  -4  -4  31   15.50   25.60
  -4   4 -31   10.10   29.30
   4  -4 -31  -32.00   21.20
   4   4 -31  -18.50   23.90
  -4  -4 -31    7.50   22.50
  -4  -4 -31   11.10   16.60
  -4   4  31  -20.20   25.90
  -5   0 -31   -3.60   11.90
  -5   0 -31   14.30   20.30
  -5   0 -31   16.30   15.50
  -5   0  31   -5.40   19.70
  -5   1 -31   32.00   14.20
  -5   1 -31   27.60   20.40
  -5   1 -31   29.20   21.50
   5  -1 -31  -48.20   20.90
  -5  -1  31   24.20   24.90
   5  -1 -31  -31.30   21.50
  -5   1  31   12.50   20.80
  -5  -1 -31   23.10   14.90
  -5  -1 -31   37.80   22.80
  -5  -1 -31   43.00   19.30
  -5  -2  31    3.80   25.50
  -5   2 -31   27.90   13.60
   5  -2 -31  -51.69   23.30
  -5   2 -31   -5.70   19.40
  -5  -2 -31   24.20   18.90
  -5  -2 -31    4.90   20.20
  -5  -2 -31   17.10   15.20
  -5   2  31  -10.10   20.10
   5  -3 -31   16.10   30.10
  -5  -3  31   43.00   26.40
  -5   3 -31   65.89   26.00
  -5  -3 -31   63.89   21.60
  -5  -3 -31   49.40   28.60
  -5   3  31   43.70   25.50
  -6   0 -31   30.00   22.90
   0   0  32   28.90   14.60
   0   0 -32   39.70   19.70
   0   0 -32   34.70   16.40
   0   0 -32   22.10   14.90
   0   1 -32   -2.50   14.70
   0  -1 -32   -3.40   16.50
   0  -1  32   -6.20   13.50
   0   1 -32   -7.90   19.50
   0  -1 -32   -6.70   13.10
   0   1  32   -9.50   13.60
   0  -1 -32    0.20   11.40
   0   2 -32   -1.00   15.00
   0   2 -32   -8.50   20.70
   0  -2 -32    4.10   15.60
   0  -2 -32   -6.60   15.10
   0  -2  32   -1.30   14.90
   0  -2 -32    6.20   15.30
   0   2  32   -6.50   15.10
   0   2 -32    8.50   28.00
   0  -3 -32    3.50   15.90
   0  -3 -32    2.30   18.90
   0   3 -32    1.30   15.60
   0   3  32  -34.50   16.60
   0  -3  32    7.00   16.10
   0   3 -32    0.00   19.80
   0   4 -32    6.50   23.70
   0   4 -32    7.70   18.90
   0  -4  32   25.00   15.90
   0  -4 -32    6.00   19.90
   0  -4 -32   26.90   17.20
   0   5 -32   16.10   26.90
   0  -5 -32   -6.10   19.00
   0  -5 -32    4.70   16.70
   0  -5  32   32.90   16.00
   1   0 -32   -2.10   14.10
  -1   0 -32    7.90   15.10
  -1   0  32    2.10   14.60
  -1   0 -32    2.80   14.20
   1   0 -32    3.00   15.70
  -1   0 -32   12.10   16.40
  -1   1 -32   -2.50   13.80
   1  -1 -32  -16.30   15.00
  -1  -1  32   -3.30   15.20
   1  -1 -32    2.20   16.00
  -1   1 -32   -6.70   18.80
   1   1 -32   -1.70   16.10
  -1   1  32   -6.40   15.10
  -1  -1 -32    6.70   17.10
  -1  -1 -32   -6.70   15.10
  -1  -1 -32   -7.40   14.60
  -1   2 -32    0.50   14.20
   1  -2 -32   -4.80   15.80
  -1  -2  32   -0.70   16.30
  -1   2 -32   -8.20   17.20
  -1   2 -32    2.00   17.80
   1  -2 -32    0.10   15.00
  -1  -2 -32   -8.40   16.60
  -1  -2 -32    2.40   17.10
   1   2 -32  -16.10   16.00
  -1  -2 -32    4.60   15.60
  -1   2  32  -14.90   16.60
  -1  -3  32   13.80   18.60
  -1   3 -32   -3.90   19.50
  -1   3 -32    3.20   21.30
  -1   3 -32   -5.90   13.70
   1  -3 -32   -0.60   16.40
   1  -3 -32    3.90   16.30
   1   3 -32  -20.80   18.90
  -1  -3 -32   14.50   19.40
  -1  -3 -32   14.60   16.30
   1   3 -32  -16.80   16.50
  -1   3  32  -38.10   16.50
  -1   4 -32   -2.10   24.30
  -1   4 -32   13.40   24.20
  -1   4 -32  -13.30   16.00
   1  -4 -32   -0.10   16.50
   1  -4 -32    0.30   20.40
  -1  -4  32    7.30   17.90
  -1  -4 -32    1.50   17.00
  -1  -4 -32   -1.20   17.70
   1   4 -32  -25.30   19.40
   1   4 -32   10.10   23.20
  -1   4  32  -47.30   20.00
  -1   5 -32  -11.30   23.50
  -1   5 -32   -3.10   27.90
   1  -5 -32   -6.90   21.70
   1  -5 -32   27.00   18.10
   1  -5 -32   -0.60   17.50
  -1  -5  32   19.30   17.10
   1   5 -32  -10.40   26.20
  -1  -5 -32    1.00   19.50
  -1  -5 -32    9.00   17.80
   2   0 -32  -17.30   17.50
  -2   0  32  -14.80   16.30
  -2   0 -32    3.20   15.10
  -2   0 -32   -0.50   18.50
  -2   0 -32   -0.80   16.20
  -2   1 -32    0.50   15.00
   2  -1 -32  -10.30   17.30
   2  -1 -32   -7.90   13.70
  -2   1 -32   20.70   21.20
  -2  -1  32    4.80   15.50
  -2  -1 -32   -5.20   11.70
  -2  -1 -32   -6.90   14.70
  -2  -1 -32   -5.20   18.40
   2   1 -32    5.40   18.80
  -2   1  32   -6.50   16.70
   2  -2 -32  -10.60   18.60
   2  -2 -32    4.90   18.70
  -2   2 -32   23.10   15.60
  -2   2 -32   27.90   21.50
  -2  -2  32   20.50   20.60
  -2   2 -32   25.20   23.60
  -2  -2 -32   26.10   19.90
   2   2 -32    1.10   19.70
  -2  -2 -32   26.60   20.50
  -2   2  32   30.30   19.90
  -2  -2 -32   30.00   17.70
  -2  -3  32    8.30   17.60
  -2   3 -32   -7.50   19.00
  -2   3 -32   -2.00   16.20
  -2   3 -32    9.50   23.20
   2  -3 -32   -5.50   18.10
   2  -3 -32  -12.70   20.30
   2   3 -32  -27.70   20.70
  -2  -3 -32   -7.00   25.20
  -2  -3 -32   -6.80   16.90
  -2  -3 -32   -9.90   15.60
  -2   3  32  -16.10   19.10
   2  -4 -32   -0.50   19.00
  -2   4 -32   10.80   25.70
  -2   4 -32   23.90   25.60
  -2  -4  32    6.30   17.10
   2  -4 -32   22.00   15.00
   2  -4 -32   -3.00   22.50
  -2   4 -32    8.50   16.40
  -2  -4 -32   16.40   18.10
  -2  -4 -32   11.90   19.20
   2   4 -32    3.70   23.00
   2   4 -32  -26.80   18.00
  -2   4  32  -19.80   23.10
   2  -5 -32  -11.60   15.60
   2  -5 -32  -14.30   21.00
  -2  -5  32    0.50   18.00
  -2  -5 -32  -10.20   20.20
  -3   0 -32   20.50   15.80
   3   0 -32   -3.90   20.90
  -3   0 -32   -2.80   20.00
  -3   0 -32   -5.10   17.40
  -3   0  32    8.40   19.60
   3  -1 -32  -28.00   18.60
  -3  -1  32   15.50   18.10
  -3   1 -32    7.70   15.30
  -3   1 -32   33.20   23.50
  -3   1 -32   -7.20   17.70
   3  -1 -32  -15.40   19.50
  -3  -1 -32    7.60   15.90
  -3   1  32    3.00   19.20
  -3  -1 -32   -3.50   19.40
  -3  -1 -32   10.60   19.30
   3   1 -32  -24.20   19.50
  -3  -2  32   15.40   19.50
  -3   2 -32   13.00   15.40
  -3   2 -32   17.80   22.50
   3  -2 -32  -14.80   21.10
   3  -2 -32  -10.10   21.10
  -3   2 -32    7.90   23.10
  -3   2  32   -5.30   20.00
  -3  -2 -32   11.10   18.90
  -3  -2 -32   16.70   18.40
   3   2 -32  -18.80   20.00
  -3  -2 -32   10.00   16.00
  -3  -3  32   13.90   20.70
  -3   3 -32   32.80   25.40
   3  -3 -32  -20.60   20.40
  -3   3 -32   11.10   25.70
   3  -3 -32  -34.20   22.10
  -3   3 -32   10.70   14.90
  -3  -3 -32   15.90   19.00
  -3   3  32  -14.90   19.00
   3   3 -32  -33.60   19.10
  -3  -3 -32  -16.10   19.00
  -3  -3 -32   11.40   17.30
  -3  -4  32   -4.50   22.40
  -3   4 -32   12.10   25.60
  -3   4 -32   27.70   30.30
  -3   4 -32   17.70   15.30
   3  -4 -32  -28.80   21.40
   3  -4 -32   -6.20   21.30
  -3  -4 -32    3.90   21.20
  -3   4  32  -30.20   24.30
  -3  -4 -32   10.20   18.00
   3   4 -32   -3.90   23.00
  -4   0 -32   12.90   15.70
  -4   0 -32   17.50   19.70
  -4   0  32   36.80   23.10
   4   0 -32   -6.10   22.60
  -4   0 -32   18.80   20.00
  -4  -1  32    8.30   22.10
  -4   1 -32   16.60   15.00
  -4   1 -32   26.20   24.00
  -4   1 -32    6.50   17.60
   4  -1 -32  -36.00   21.10
   4  -1 -32  -20.00   21.30
  -4   1  32   -4.70   20.80
  -4  -1 -32   31.20   19.80
  -4  -1 -32   14.30   21.80
   4   1 -32  -38.90   20.10
  -4  -1 -32   -0.90   14.00
   4  -2 -32  -12.70   23.50
  -4  -2  32   15.30   21.30
   4  -2 -32   -1.50   23.20
  -4   2 -32   26.00   27.20
  -4   2 -32   33.80   18.30
  -4  -2 -32   29.30   24.50
  -4  -2 -32    6.80   15.30
  -4  -2 -32   11.10   17.10
  -4   2  32    2.50   22.00
   4  -3 -32  -18.30   22.80
  -4   3 -32   13.30   26.80
  -4   3 -32    1.70   16.70
   4  -3 -32  -17.70   22.80
  -4  -3  32    0.90   25.20
  -4  -3 -32   -4.90   24.00
  -4  -3 -32   31.30   16.60
  -4   3  32   -5.00   20.90
  -4  -3 -32   13.10   16.40
  -5   0 -32   15.90   20.30
  -5   0 -32   19.20   13.40
  -5   0 -32   15.40   21.20
  -5   0  32   -1.50   20.70
  -5   1 -32   33.50   19.50
  -5   1 -32   -2.90   22.90
  -5   1 -32   15.60   12.90
   5  -1 -32  -41.00   16.10
  -5  -1  32   21.50   24.80
  -5  -1 -32   21.70   21.10
  -5  -1 -32   19.00   13.50
  -5   1  32    2.90   23.40
  -5  -1 -32   31.90   19.80
  -5  -2  32    6.30   27.00
  -5   2 -32   19.60   25.00
   5  -2 -32  -53.49   23.30
  -5   2  32  -17.10   23.00
  -5  -2 -32   -1.50   24.60
  -5  -2 -32   51.49   18.60
   0   0 -33    9.00   15.40
   0   0 -33  -17.50   17.90
   0   0  33    4.00   13.20
   0   0 -33   -1.00   14.80
   0  -1 -33  -11.40   16.70
   0   1 -33    7.90   15.50
   0  -1  33    3.40   14.10
   0   1  33  -21.10   19.10
   0   1 -33    0.20   20.90
   0  -1 -33    0.60   15.60
   0  -1 -33   -8.60   13.00
   0   2 -33   -1.70   15.10
   0  -2 -33    1.80   15.40
   0  -2 -33  -18.80   15.70
   0  -2  33   -7.20   15.20
   0   2 -33   -1.30   22.80
   0  -2 -33  -10.80   14.60
   0   3 -33    3.20   21.60
   0   3 -33  -13.30   15.30
   0  -3 -33    8.50   16.60
   0  -3 -33   -4.40   18.30
   0  -3  33   -5.50   16.40
   0  -4  33   16.40   16.90
   0   4 -33    4.50   23.70
   0  -4 -33  -17.00   19.10
   0   4 -33   -7.20   16.50
   0  -4 -33   -6.20   16.20
  -1   0  33    0.90   15.10
  -1   0 -33   -5.80   14.90
   1   0 -33   -3.30   16.60
  -1   0 -33   -3.70   18.10
  -1   0 -33  -16.00   12.80
   1  -1 -33   12.30   16.50
  -1   1 -33   10.00   20.90
   1  -1 -33   -3.00   16.60
  -1  -1  33   10.10   18.30
  -1   1 -33    7.10   14.90
  -1  -1 -33   -0.10   15.50
  -1   1  33    5.00   15.60
   1   1 -33    1.10   17.10
  -1  -1 -33    6.40   17.50
  -1  -1 -33   14.00   14.50
   1  -2 -33   17.60   13.70
  -1   2 -33    1.50   14.80
  -1  -2  33   -5.40   17.90
   1  -2 -33   -2.20   17.60
  -1   2 -33   -0.20   18.80
  -1  -2 -33    1.20   17.60
  -1   2  33  -25.60   16.40
  -1  -2 -33   15.00   16.40
   1   2 -33   -1.90   16.70
  -1  -2 -33   10.30   16.50
  -1   3 -33   31.80   21.60
   1  -3 -33   13.20   20.20
  -1  -3  33   10.50   19.30
  -1   3 -33   18.50   15.60
  -1   3 -33    1.70   21.50
   1  -3 -33   28.10   18.10
   1   3 -33   -1.70   17.60
  -1   3  33  -13.60   18.40
  -1  -3 -33   22.60   20.30
  -1  -3 -33   18.20   17.30
   1  -4 -33  -12.90   17.80
  -1  -4  33   23.10   19.00
  -1   4 -33   -9.40   15.10
   1  -4 -33    1.10   17.60
  -1   4 -33  -14.80   21.70
  -1   4 -33    8.40   24.10
  -1  -4 -33   -3.90   18.10
   1   4 -33    4.80   23.10
  -1  -4 -33   22.00   18.50
   1   4 -33  -14.10   18.20
   2   0 -33  -12.60   18.10
  -2   0 -33   12.50   20.20
  -2   0  33    6.70   17.90
  -2   0 -33    7.10   15.60
  -2   0 -33    0.60   15.30
   2  -1 -33   -8.00   17.60
  -2   1 -33    3.80   21.90
  -2   1 -33    2.80   15.50
   2  -1 -33  -21.00   18.00
  -2  -1  33    9.30   19.20
  -2  -1 -33  -14.00   16.80
   2   1 -33   -6.70   18.90
  -2  -1 -33   -2.60   15.60
  -2   1  33   -5.90   17.60
  -2  -1 -33   13.10   19.50
  -2   2 -33    2.60   17.00
  -2   2 -33    9.50   22.50
   2  -2 -33   -1.90   17.00
   2  -2 -33   13.10   18.80
  -2  -2  33   -0.70   16.80
  -2   2 -33  -20.60   18.30
  -2   2  33   -7.90   18.70
   2   2 -33  -17.00   21.30
  -2  -2 -33   -5.60   16.50
  -2  -2 -33   20.30   20.00
  -2  -2 -33   14.50   19.20
   2  -3 -33  -29.00   19.40
  -2   3 -33   11.60   23.20
  -2   3 -33   -0.50   16.60
  -2  -3  33   10.80   22.60
  -2   3 -33   17.30   20.70
   2  -3 -33   -3.50   18.70
   2   3 -33  -35.30   17.80
  -2  -3 -33   13.50   18.90
  -2  -3 -33   11.00   17.40
  -2   3  33  -20.50   20.00
   2  -4 -33   -6.30   18.70
  -2  -4  33    8.80   22.30
   2  -4 -33   17.20   15.10
  -2   4 -33   -1.10   23.30
   2  -4 -33  -29.30   21.20
  -2   4 -33   31.60   26.60
  -2   4 -33  -13.00   15.60
  -2  -4 -33   10.80   18.30
  -2  -4 -33   -1.10   19.10
   2   4 -33  -35.50   22.00
  -2   4  33  -18.30   20.70
   2   4 -33  -24.90   22.20
   3   0 -33   -7.50   20.80
  -3   0 -33   -1.30   18.20
  -3   0  33   11.30   20.40
  -3   0 -33    7.20   16.40
  -3   0 -33   16.30   18.80
  -3   1 -33   34.90   23.80
   3  -1 -33  -11.50   19.20
  -3  -1  33   20.60   18.80
  -3   1 -33   17.70   16.60
   3  -1 -33   11.70   21.80
  -3  -1 -33   14.40   17.70
  -3   1  33   15.60   20.80
   3   1 -33   -5.20   21.90
  -3  -1 -33   27.90   21.50
  -3  -1 -33   36.00   22.40
  -3  -2  33   -7.40   22.80
   3  -2 -33   -9.90   20.40
  -3   2 -33   14.50   20.50
   3  -2 -33  -15.60   18.40
  -3   2 -33   20.10   18.40
  -3   2 -33   15.50   23.40
  -3  -2 -33   12.80   20.50
   3   2 -33   -1.00   21.50
  -3   2  33   -3.70   17.30
  -3  -2 -33   11.40   22.00
  -3  -2 -33   13.00   17.50
   3  -3 -33  -10.20   20.70
   3  -3 -33    5.70   22.00
  -3   3 -33   22.80   26.70
  -3   3 -33   13.70   18.00
  -3   3 -33    4.80   25.80
  -3  -3  33    7.60   25.00
  -3   3  33  -14.40   22.70
  -3  -3 -33   20.90   18.90
  -3  -3 -33   -3.70   20.10
   3   3 -33  -48.80   22.90
  -3  -3 -33   26.10   25.60
   4   0 -33   -5.10   23.80
  -4   0 -33    1.60   15.60
  -4   0 -33    8.30   21.40
  -4   0  33   -3.40   22.30
  -4   0 -33   -3.10   21.70
  -4   1 -33   21.30   16.90
  -4  -1  33   13.70   23.10
  -4   1 -33   19.90   24.80
   4  -1 -33  -23.20   22.60
  -4   1  33   26.30   20.10
  -4  -1 -33   12.90   19.30
   4   1 -33  -13.70   23.40
  -4  -1 -33   16.80   16.40
  -4  -1 -33    7.00   19.40
  -4   2 -33   20.30   21.50
   4  -2 -33  -32.80   22.50
   4  -2 -33  -12.00   23.10
  -4   2 -33    3.00   15.60
  -4  -2  33   25.10   26.80
  -4  -2 -33   11.30   23.50
   4   2 -33  -46.80   21.80
  -4   2  33    0.10   22.50
  -4  -2 -33   15.70   16.40
  -4  -2 -33   28.20   19.60
   0   0 -34   52.99   18.80
   0   0 -34   48.50   21.80
   0   1 -34   -5.60   21.20
   0  -1 -34   -9.20   15.10
   0   1 -34    4.30   16.20
   0  -1 -34    4.80   16.20
   0  -1 -34  -11.80   17.10
   0  -2 -34   -2.70   15.40
   0  -2 -34   11.60   16.50
   0   2 -34    4.80   18.30
   0  -3 -34    1.10   16.20
   0   3 -34   -8.30   18.40
   0  -3 -34  -23.30   18.10
   0  -4 -34   15.10   19.30
   0   4 -34   27.80   25.30
  -1   0 -34   16.00   16.80
  -1   0 -34   13.90   19.80
  -1   0  34  -11.50   16.50
   1   0 -34   -0.20   17.50
  -1  -1  34    6.80   16.90
  -1   1 -34   21.80   21.70
  -1   1 -34   13.20   15.40
   1  -1 -34    0.20   17.20
   1  -1 -34   -5.10   16.20
   1   1 -34    3.80   17.30
  -1  -1 -34    3.40   16.20
  -1   1  34  -18.30   15.30
  -1  -1 -34   14.50   18.40
  -1  -1 -34   -9.10   15.40
   1  -2 -34  -16.20   17.40
  -1   2 -34  -10.40   22.00
  -1  -2  34   -0.40   18.80
   1  -2 -34  -12.90   16.40
  -1   2 -34   -0.50   15.20
  -1  -2 -34    8.00   18.60
  -1  -2 -34   -7.90   17.70
  -1  -2 -34    9.00   16.90
  -1   2  34   -8.20   16.20
   1   2 -34  -13.80   17.20
   1  -3 -34   -7.90   17.10
   1  -3 -34    0.70   19.80
  -1   3 -34    7.90   25.50
  -1   3 -34   -2.10   15.20
  -1  -3  34   -0.70   20.60
  -1   3 -34   -3.50   25.30
  -1   3  34  -10.40   17.60
   1   3 -34    1.60   18.30
  -1  -3 -34  -12.70   19.00
  -1  -3 -34   12.10   17.70
  -1  -4  34   17.50   21.30
  -1   4 -34    4.50   25.50
   1  -4 -34   -2.80   18.80
  -1   4 -34    0.20   23.60
  -1  -4 -34  -23.00   17.90
   1   4 -34  -12.40   26.60
  -2   0  34   19.80   18.70
  -2   0 -34   14.50   17.00
  -2   0 -34    2.70   16.80
   2   0 -34    0.20   19.30
  -2   0 -34    0.20   21.50
   2  -1 -34   -6.30   18.00
  -2   1 -34  -13.10   15.40
   2  -1 -34   -9.60   17.40
  -2  -1  34    9.80   19.80
  -2   1 -34   -6.00   18.30
  -2  -1 -34   -6.30   15.50
  -2  -1 -34   22.00   21.20
  -2  -1 -34   11.30   17.50
   2   1 -34   -4.80   19.00
  -2   1  34  -10.80   17.70
  -2   2 -34   43.10   17.50
   2  -2 -34   24.80   20.50
  -2  -2  34   33.30   22.70
  -2   2 -34   50.19   26.10
   2  -2 -34   15.80   20.60
  -2  -2 -34   45.50   22.00
  -2  -2 -34   47.10   23.00
  -2   2  34   28.60   21.40
  -2  -2 -34   44.00   19.70
   2   2 -34   34.40   22.20
  -2   3 -34    2.10   16.60
  -2   3 -34   14.70   21.70
  -2   3 -34   16.50   24.80
  -2  -3  34    7.90   22.30
   2  -3 -34    8.20   20.00
   2  -3 -34  -18.20   18.30
  -2  -3 -34   15.90   18.10
  -2  -3 -34   -7.40   18.50
  -2   3  34   -6.10   18.10
   2   3 -34  -33.10   19.30
  -3   0 -34   -6.30   19.40
   3   0 -34  -19.40   20.10
  -3   0 -34   -1.40   23.10
  -3   0  34   -8.50   19.10
  -3   0 -34   13.80   17.60
  -3   1 -34    7.40   16.20
  -3  -1  34   22.40   22.90
   3  -1 -34  -19.40   20.40
  -3   1 -34   16.70   20.60
  -3  -1 -34    9.70   21.80
  -3  -1 -34   11.80   17.30
  -3   1  34    3.00   20.60
   3   1 -34   -7.70   21.30
  -3  -1 -34    5.70   21.00
  -3   2 -34    6.50   16.30
  -3   2 -34   -0.40   21.10
   3  -2 -34   -7.30   20.80
  -3  -2  34    1.10   23.60
   3  -2 -34  -34.90   21.10
  -3  -2 -34   22.10   23.90
   3   2 -34  -21.40   21.10
  -3   2  34   -4.10   20.90
  -3  -2 -34   -1.60   17.50
  -3  -2 -34   19.10   21.90
   3  -3 -34  -31.80   23.20
  -3  -3 -34  -10.10   23.20
  -4   0 -34   25.90   20.80
  -4   0  34   19.20   23.10
  -4   0 -34   23.00   22.10
  -4   1 -34    4.30   20.90
  -4  -1  34    0.60   23.20
  -4  -1 -34    8.70   23.00
  -4   1  34   -4.30   18.90
  -4  -1 -34   -6.00   23.40
   0   0 -35    7.40   16.80
   0   0 -35   -2.50   20.70
   0   1 -35   -3.00   16.00
   0  -1 -35   -0.50   17.00
   0  -1 -35   -7.90   16.20
   0  -1 -35   -6.80   19.00
   0  -2 -35    8.30   16.40
   0   2 -35   -2.80   16.40
   0  -2 -35    1.40   16.10
   0  -3 -35   -2.40   19.50
  -1   0 -35   -1.60   20.80
  -1   0 -35    0.60   16.50
  -1   0  35   -0.70   16.00
   1   0 -35    1.00   17.40
   1  -1 -35   26.00   15.80
   1  -1 -35    7.50   20.10
  -1   1 -35   27.00   17.40
  -1  -1  35   32.80   19.50
  -1   1 -35   44.60   23.80
   1   1 -35   35.20   19.80
  -1  -1 -35   36.30   19.20
  -1   1  35   38.20   18.10
  -1  -1 -35   37.30   22.10
  -1  -1 -35   55.79   20.10
  -1   2 -35   -5.70   15.30
   1  -2 -35    1.00   18.10
  -1  -2  35    7.00   19.00
  -1   2 -35   13.80   23.60
   1  -2 -35  -17.30   18.00
   1   2 -35  -14.70   17.60
  -1  -2 -35    2.80   17.20
  -1   2  35  -17.00   16.30
  -1  -2 -35    3.20   19.30
  -1  -3  35   29.20   23.10
  -1   3 -35   46.70   28.60
   1  -3 -35   15.30   21.30
  -1  -3 -35   23.00   21.90
  -1   3  35   15.90   29.60
  -2   0  35   -5.70   17.70
   2   0 -35   -8.80   19.30
  -2   0 -35   11.90   17.90
  -2   0 -35   17.10   23.20
  -2   1 -35    5.40   19.40
  -2   1 -35    0.10   21.80
  -2  -1  35   -5.90   19.00
   2  -1 -35   -1.20   19.60
  -2   1  35   -7.10   18.30
   2   1 -35   -1.50   20.50
  -2  -1 -35   12.70   18.60
  -2  -1 -35    3.80   18.70
  -2  -1 -35   -2.40   21.80
   2  -2 -35  -20.70   19.20
  -2   2 -35   -0.90   24.60
  -2   2 -35    4.50   15.90
  -2  -2  35    8.60   22.40
   2  -2 -35   -0.20   19.00
  -2  -2 -35    6.10   17.50
  -2   2  35  -13.00   18.60
   2   2 -35  -10.40   20.20
  -2  -2 -35   -1.40   19.50
  -2  -2 -35    6.90   17.90
  -3   0 -35   15.30   25.20
  -3   0  35    6.20   21.20
  -3   1 -35   42.40   28.40
  -3  -1  35   24.70   23.80
  -3   1  35   23.00   22.00
  -3  -1 -35   38.80   24.60
  -3  -1 -35   21.60   22.90
   0   0 -36  102.79   23.70
   0   1 -36    4.70   17.00
   0  -1 -36    2.10   17.20
   0  -2 -36   36.50   18.20
   1   0 -36    5.20   18.70
  -1   0 -36  -14.50   17.00
  -1   0 -36   16.20   22.90
  -1   1 -36   -0.10   18.90
  -1   1 -36   11.80   23.60
   1  -1 -36   17.10   19.20
   1   1 -36   -4.10   18.50
  -1  -1 -36    1.10   19.90
  -1  -1 -36   -9.70   17.90
  -1  -1 -36   -0.40   17.40
   1  -2 -36   -2.60   19.30
  -1  -2 -36   -3.60   17.00
  -2   0 -36   56.79   24.40
  -2   0  36   37.60   20.90
  -2  -1 -36  -12.40   18.90
   0   0   0    0.00    0.00

_computing_structure_solution     'SHELXT 2014/5 (Sheldrick, 2014)'
;
_shelx_hkl_checksum                     7640

_publcif_info_exptl_table_max_cols 4
_publcif_info_exptl_table_use_headnotes n

loop_
_publcif_info_datablock.id
_publcif_info_datablock.publ_exptl
_publcif_info_datablock.publ_geom
_publcif_info_datablock.structure
'{1f2888aa-5edf-4fda-a6b8-a867083b0f2c}' ? ? ?
'{da15a8cf-4866-4801-851f-dae1af8d4ce6}' y y y

loop_
_publcif_info_exptl_table_extra_item
sin_theta_over_lambda_max

loop_
_publcif_info_exptl_table_header_item
?

loop_
_publcif_info_tables.block_id
_publcif_info_tables.reference_item
"{1f2888aa-5edf-4fda-a6b8-a867083b0f2c}" "_publcif_info_datablock.publ_exptl"

loop_
_publcif_info_cif.paper_type
 CE



_publcif_funding_html
;
;
