####################################################################### 
# 
# This file contains crystal structure data downloaded from the 
# Cambridge Structural Database (CSD) hosted by the Cambridge 
# Crystallographic Data Centre (CCDC).
# 
# Full information about CCDC data access policies and citation 
# guidelines are available at http://www.ccdc.cam.ac.uk/access/V1 
# 
# Audit and citation data items may have been added by the CCDC. 
# Please retain this information to preserve the provenance of 
# this file and to allow appropriate attribution of the data. 
# 
#######################################################################

data_BA2MA4Pb5I16
_audit_block_doi                 10.5517/ccdc.csd.cc1nc6nw
_database_code_depnum_ccdc_archive 'CCDC 1530118'
loop_
_citation_id
_citation_doi
_citation_year
1 10.1016/j.chempr.2017.02.004 2017
_audit_update_record             
;
2017-01-27 deposited with the CCDC.	2019-07-16 downloaded from the CCDC.
;
#=======================================================================

# 5. CHEMICAL DATA

_chemical_name_systematic        BA2MA4Pb5I16
_chemical_name_common            '(BA)2(MA)4Pb5I16'
_chemical_formula_moiety         (C4H9NH3)2(CH3NH3)4Pb5I16
_chemical_formula_structural     ?
_chemical_formula_analytical     ?
_chemical_formula_iupac          ?
_chemical_formula_sum            'C12 H48 I16 N6 Pb5'
_chemical_formula_weight         3343
_chemical_melting_point          ?
_chemical_compound_source        ?
_chemical_absolute_configuration ?

#=======================================================================

# 6. CRYSTAL DATA

_symmetry_cell_setting           orthorhombic
_symmetry_space_group_name_H-M   'C 2 c b'
_symmetry_space_group_name_Hall  'C 2x;-2ybc;-2zac'
_symmetry_Int_Tables_number      41

loop_
_space_group_symop_id
_space_group_symop_operation_xyz
1 x,y,z
2 x,-y,-z
3 x,y+1/2,-z+1/2
4 x,-y+1/2,z+1/2
5 x+1/2,y+1/2,z
6 x+1/2,-y+1/2,-z
7 x+1/2,y,-z+1/2
8 x+1/2,-y,z+1/2

_cell_length_a                   8.9050(7)
_cell_length_b                   77.013(4)
_cell_length_c                   8.9313(4)
_cell_angle_alpha                90
_cell_angle_beta                 90
_cell_angle_gamma                90
_cell_volume                     6125.1(6)

loop_
_twin_individual_id
_twin_individual_mass_fraction_refined
_twin_individual_twin_matrix_11
_twin_individual_twin_matrix_12
_twin_individual_twin_matrix_13
_twin_individual_twin_matrix_21
_twin_individual_twin_matrix_22
_twin_individual_twin_matrix_23
_twin_individual_twin_matrix_31
_twin_individual_twin_matrix_32
_twin_individual_twin_matrix_33
1 0.50(2) 1 0 0 0 1 0 0 0 1
2 0.44(2) -1 0 0 0 1 0 0 0 -1
3 0.052(7) 0 0 -1 0 -1 0 -1 0 0

_cell_formula_units_Z            4

_cell_measurement_reflns_used    5064
_cell_measurement_theta_min      1.58
_cell_measurement_theta_max      29.63
_cell_measurement_temperature    293
_cell_special_details            
; ?
;

_exptl_crystal_density_diffrn    3.6252
_exptl_crystal_density_meas      ?
_exptl_crystal_density_method    ?
_exptl_crystal_F_000             5680

_exptl_absorpt_coefficient_mu    21.777
_exptl_crystal_description       'rectangular plate'
_exptl_crystal_size_max          0.1678
_exptl_crystal_size_mid          0.0329
_exptl_crystal_size_min          0.0095
_exptl_crystal_size_rad          ?
_exptl_crystal_colour            Black
_exptl_absorpt_correction_type   integration
_exptl_absorpt_process_details   X-SHAPE
_exptl_absorpt_correction_T_min  0.0150
_exptl_absorpt_correction_T_max  0.6478
loop_
_exptl_crystal_face_index_h
_exptl_crystal_face_index_k
_exptl_crystal_face_index_l
_exptl_crystal_face_perp_dist
? ? ? ?

#=======================================================================

# 7. EXPERIMENTAL DATA

_exptl_special_details           ?

_diffrn_ambient_temperature      293
_diffrn_measurement_device       '2-circle goniometer'
_diffrn_measurement_device_type  'STOE IPDS 2'
_diffrn_detector                 'image plate (34 cm diameter)'
_diffrn_detector_type            STOE
_diffrn_detector_area_resol_mean 6.67
_diffrn_source                   
'sealed X-ray tube, 12 x 0.4 mm long-fine focus'
_diffrn_source_voltage           50
_diffrn_source_current           40
_diffrn_source_power             1.20
_diffrn_radiation_type           'Mo K\a'
_diffrn_radiation_wavelength     0.71073
_diffrn_radiation_monochromator  'plane graphite'
_diffrn_radiation_polarisn_norm  0
_diffrn_radiation_collimation    '0.3 mm diameter, monocapillary'
_diffrn_measurement_method       'rotation method'
_diffrn_measurement_details      
; 180 frames, detector distance = 100 mm
;

_diffrn_reflns_number            24919
_diffrn_reflns_theta_min         1.59
_diffrn_reflns_theta_max         29.28
_diffrn_reflns_theta_full        29.28
_diffrn_measured_fraction_theta_max 0.98
_diffrn_measured_fraction_theta_full 0.98
_diffrn_reflns_av_R_equivalents  0.1247
_diffrn_reflns_av_unetI/netI     0.0685
_diffrn_reflns_limit_h_min       -11
_diffrn_reflns_limit_h_max       12
_diffrn_reflns_limit_k_min       -105
_diffrn_reflns_limit_k_max       99
_diffrn_reflns_limit_l_min       -12
_diffrn_reflns_limit_l_max       12
_diffrn_reflns_reduction_process ?

_diffrn_standards_number         ?
_diffrn_standards_interval_count ?
_diffrn_standards_interval_time  ?
_diffrn_standards_decay_%        ?
loop_
_diffrn_standard_refln_index_h
_diffrn_standard_refln_index_k
_diffrn_standard_refln_index_l
? ? ?

_diffrn_radiation_probe          X-ray

#=======================================================================

# 8. REFINEMENT DATA

_refine_special_details          
;Refined as a 2-component twin.
 The perovskite lattice {Pb5I16} was refined anisotropically without
 any constraints on the Pb and I atoms. The highly anisotropic shape of
 the thermal ellipsoids of coordinated iodide ions appears due to a high
 thermal motion relative to the Pb-I bond vector. It is typical for the
 halide perovskites structures at room temperature and therefore no 
 special treatment was used.All organic atoms were refined isotropically.
 Restraints were applied to the C-C and C-N bond lengths. Each cation was
 treated as having equivalent thermal parameters., Twin
;

_reflns_number_total             9146
_reflns_number_gt                3611
_reflns_threshold_expression     I>2\s(I)

_refine_ls_structure_factor_coef Fsqd
_refine_ls_R_factor_gt           0.0958
_refine_ls_wR_factor_gt          0.1799
_refine_ls_R_factor_all          0.2032
_refine_ls_wR_factor_ref         0.1950
_refine_ls_goodness_of_fit_ref   2.64
_refine_ls_goodness_of_fit_gt    3.91
_refine_ls_restrained_S_gt       ?
_refine_ls_restrained_S_all      ?
_refine_ls_number_reflns         9146
_refine_ls_number_parameters     130
_refine_ls_number_restraints     9
_refine_ls_number_constraints    101
_refine_ls_weighting_scheme      sigma
_refine_ls_weighting_details     w=1/(\s^2^(I)+0.0004I^2^)
_refine_ls_hydrogen_treatment    constr
_refine_ls_shift/su_max          0.0318
_refine_ls_shift/su_mean         0.0041
_refine_diff_density_max         2.11
_refine_diff_density_min         -1.85
_refine_ls_extinction_method     none
_refine_ls_extinction_coef       ?
_refine_ls_abs_structure_details 
;  2547 of Friedel pairs used in the refinement
;
_refine_ls_abs_structure_Flack   ?
_refine_ls_abs_structure_Rogers  ?

loop_
_atom_type_symbol
_atom_type_scat_dispersion_real
_atom_type_scat_dispersion_imag
_atom_type_scat_source
C 0.0033 0.0016 'International Tables Vol C tables 4.2.6.8 and 6.1.1.1'
H 0.0000 0.0000 'International Tables Vol C tables 4.2.6.8 and 6.1.1.1'
I -0.4742 1.8119 'International Tables Vol C tables 4.2.6.8 and 6.1.1.1'
N 0.0061 0.0033 'International Tables Vol C tables 4.2.6.8 and 6.1.1.1'
Pb -3.3944 10.1111 'International Tables Vol C tables 4.2.6.8 and 6.1.1.1'

_computing_data_collection       'STOE X-AREA'
_computing_cell_refinement       'STOE X-AREA'
_computing_data_reduction        'STOE X-RED'
_computing_structure_solution    Superflip
_computing_structure_refinement  Jana2006
_computing_molecular_graphics    ?
_computing_publication_material  ?

loop_
_restr_distance_atom_site_label_1
_restr_distance_site_symmetry_1
_restr_distance_atom_site_label_2
_restr_distance_site_symmetry_2
_restr_distance_target
_restr_distance_target_weight_param
C1 . N1 . 1.5 0.05
C2 . N2 . 1.5 0.05
C3 . N3 . 1.5 0.05
C3 . C4 . 1.5 0.05
C4 . C5 . 1.5 0.05
C5 . C6 . 1.5 0.05

loop_
_restr_angle_atom_site_label_1
_restr_angle_site_symmetry_1
_restr_angle_atom_site_label_2
_restr_angle_site_symmetry_2
_restr_angle_atom_site_label_3
_restr_angle_site_symmetry_3
_restr_angle_target
_restr_angle_target_weight_param
N3 . C3 . C4 . 109.47 1
C3 . C4 . C5 . 109.47 1
C4 . C5 . C6 . 109.47 1

loop_
_restr_torsion_atom_site_label_1
_restr_torsion_site_symmetry_1
_restr_torsion_atom_site_label_2
_restr_torsion_site_symmetry_2
_restr_torsion_atom_site_label_3
_restr_torsion_site_symmetry_3
_restr_torsion_atom_site_label_4
_restr_torsion_site_symmetry_4
_restr_torsion_angle_target
_restr_torsion_weight_param
? ? ? ? ? ? ? ? ? ?

loop_
_restr_equal_distance_atom_site_label_1
_restr_equal_distance_site_symmetry_1
_restr_equal_distance_atom_site_label_2
_restr_equal_distance_site_symmetry_2
_restr_equal_distance_class_class_id
_restr_equal_distance_class_target_weight_param
? ? ? ? ? ?

loop_
_restr_equal_angle_atom_site_label_1
_restr_equal_angle_site_symmetry_1
_restr_equal_angle_atom_site_label_2
_restr_equal_angle_site_symmetry_2
_restr_equal_angle_atom_site_label_3
_restr_equal_angle_site_symmetry_3
_restr_equal_angle_class_class_id
_restr_equal_angle_class_target_weight_param
? ? ? ? ? ? ? ?

loop_
_restr_equal_torsion_atom_site_label_1
_restr_equal_torsion_site_symmetry_1
_restr_equal_torsion_atom_site_label_2
_restr_equal_torsion_site_symmetry_2
_restr_equal_torsion_atom_site_label_3
_restr_equal_torsion_site_symmetry_3
_restr_equal_torsion_atom_site_label_4
_restr_equal_torsion_site_symmetry_4
_restr_equal_torsion_class_class_id
_restr_equal_torsion_class_target_weight_param
? ? ? ? ? ? ? ? ? ?


#=======================================================================

# 9. ATOMIC COORDINATES AND DISPLACEMENT PARAMETERS

loop_
_atom_site_label
_atom_site_type_symbol
_atom_site_fract_x
_atom_site_fract_y
_atom_site_fract_z
_atom_site_adp_type
_atom_site_U_iso_or_equiv
_atom_site_site_symmetry_multiplicity
_atom_site_occupancy
_atom_site_calc_flag
_atom_site_refinement_flags
_atom_site_disorder_assembly
_atom_site_disorder_group
Pb1 Pb 0.4728(4) 0 0 Uani 0.0664(7) 4 1 d . . .
Pb2 Pb 0.4833(4) 0.082119(15) 0.00018(9) Uani 0.0763(5) 8 1 d . . .
Pb3 Pb 0.4899(4) 0.164979(14) -0.00119(9) Uani 0.0835(6) 8 1 d . . .
I1 I 0.2167(5) 0.00339(5) 0.2536(6) Uani 0.1234(13) 8 1 d . . .
I2 I 0.4861(12) 0.04071(4) -0.0397(3) Uani 0.1391(16) 8 1 d . . .
I3 I 0.2340(8) 0.07842(5) 0.2565(7) Uani 0.1474(18) 8 1 d . . .
I4 I 0.2300(7) 0.08534(5) 0.7452(7) Uani 0.1402(17) 8 1 d . . .
I5 I 0.4952(13) 0.12220(4) 0.0420(3) Uani 0.1415(17) 8 1 d . . .
I6 I 0.2377(7) 0.15955(5) 0.7389(5) Uani 0.1354(17) 8 1 d . . .
I7 I 0.2421(7) 0.16789(5) 0.2568(6) Uani 0.1384(17) 8 1 d . . .
I8 I 0.5014(14) 0.20380(4) -0.0577(3) Uani 0.174(2) 8 1 d . . .
N1 N 0.468(15) 0.0315(7) 0.511(7) Uiso 0.28(3) 8 1 d . . .
N2 N 0.018(10) 0.1270(8) 0.006(6) Uiso 0.35(3) 8 1 d . . .
N3 N 0.577(8) 0.1885(7) -0.466(4) Uiso 0.269(14) 8 1 d . . .
C1 C 0.524(13) 0.0490(7) 0.504(6) Uiso 0.22(3) 8 1 d . . .
C2 C -0.085(8) 0.1111(8) 0.017(7) Uiso 0.23(3) 8 1 d . . .
C3 C 0.444(8) 0.1993(7) -0.457(5) Uiso 0.269(14) 8 1 d . . .
C4 C 0.456(8) 0.2134(6) -0.570(5) Uiso 0.269(14) 8 1 d . . .
C5 C 0.592(7) 0.2249(7) -0.534(5) Uiso 0.269(14) 8 1 d . . .
C6 C 0.594(7) 0.2398(7) -0.641(6) Uiso 0.269(14) 8 1 d . . .
H1c1 H 0.61092 0.050135 0.566374 Uiso 0.2592 8 1 d . . .
H2c1 H 0.5506 0.051801 0.4021 Uiso 0.2592 8 1 d . . .
H3c1 H 0.447417 0.05689 0.537377 Uiso 0.2592 8 1 d . . .
H1c2 H -0.18135 0.114536 0.055753 Uiso 0.2779 8 1 d . . .
H2c2 H -0.097487 0.106007 -0.079926 Uiso 0.2779 8 1 d . . .
H3c2 H -0.040828 0.102714 0.083817 Uiso 0.2779 8 1 d . . .
H1c3 H 0.43594 0.204233 -0.359104 Uiso 0.3223 8 1 d . . .
H2c3 H 0.356873 0.192323 -0.478584 Uiso 0.3223 8 1 d . . .
H1c4 H 0.366402 0.220314 -0.568799 Uiso 0.3223 8 1 d . . .
H2c4 H 0.468752 0.208449 -0.668163 Uiso 0.3223 8 1 d . . .
H1c5 H 0.582631 0.229278 -0.433276 Uiso 0.3223 8 1 d . . .
H2c5 H 0.682563 0.218289 -0.544137 Uiso 0.3223 8 1 d . . .
H1c6 H 0.533155 0.249051 -0.60281 Uiso 0.3223 8 1 d . . .
H2c6 H 0.695597 0.243811 -0.653166 Uiso 0.3223 8 1 d . . .
H3c6 H 0.555653 0.236053 -0.736018 Uiso 0.3223 8 1 d . . .
H1n1 H 0.392748 0.030968 0.572065 Uiso 0.3329 8 1 d . . .
H2n1 H 0.439459 0.028186 0.42187 Uiso 0.3329 8 1 d . . .
H3n1 H 0.539422 0.024606 0.54194 Uiso 0.3329 8 1 d . . .
H1n2 H 0.099808 0.125161 0.056113 Uiso 0.4208 8 1 d . . .
H2n2 H 0.039519 0.128961 -0.08747 Uiso 0.4208 8 1 d . . .
H3n2 H -0.028261 0.136054 0.042895 Uiso 0.4208 8 1 d . . .
H1n3 H 0.577955 0.182836 -0.549791 Uiso 0.3223 8 1 d . . .
H2n3 H 0.65697 0.195041 -0.460231 Uiso 0.3223 8 1 d . . .
H3n3 H 0.577624 0.181172 -0.39137 Uiso 0.3223 8 1 d . . .

loop_
_atom_site_aniso_label
_atom_site_aniso_type_symbol
_atom_site_aniso_U_11
_atom_site_aniso_U_22
_atom_site_aniso_U_33
_atom_site_aniso_U_12
_atom_site_aniso_U_13
_atom_site_aniso_U_23
Pb1 Pb 0.0629(16) 0.0912(11) 0.0450(7) 0 0 0.0003(7)
Pb2 Pb 0.0906(13) 0.0917(8) 0.0465(6) 0.0006(13) 0.0032(10) 0.0002(5)
Pb3 Pb 0.1045(15) 0.0971(9) 0.0489(6) 0.003(2) -0.0045(11) 0.0019(5)
I1 I 0.067(2) 0.218(3) 0.0853(15) 0.000(4) 0.0430(14) 0.007(3)
I2 I 0.218(4) 0.0772(16) 0.1220(16) 0.007(6) 0.030(5) 0.0031(12)
I3 I 0.153(4) 0.198(3) 0.0902(18) 0.024(8) 0.0598(18) 0.017(4)
I4 I 0.114(3) 0.219(3) 0.0878(18) 0.009(6) -0.0555(17) 0.007(4)
I5 I 0.225(4) 0.0840(18) 0.1156(17) -0.005(6) -0.012(5) -0.0040(11)
I6 I 0.138(4) 0.200(3) 0.0686(17) -0.013(6) -0.0448(15) 0.001(3)
I7 I 0.135(4) 0.212(3) 0.0683(15) 0.013(7) 0.0407(14) 0.003(4)
I8 I 0.325(6) 0.095(2) 0.1015(16) -0.023(7) -0.016(5) 0.0020(11)

loop_
_jana_atom_site_ADP_C_label
_jana_atom_site_ADP_C_type_symbol
_jana_atom_site_ADP_C_111
_jana_atom_site_ADP_C_112
_jana_atom_site_ADP_C_113
_jana_atom_site_ADP_C_122
_jana_atom_site_ADP_C_123
_jana_atom_site_ADP_C_133
_jana_atom_site_ADP_C_222
_jana_atom_site_ADP_C_223
_jana_atom_site_ADP_C_233
_jana_atom_site_ADP_C_333
? ? ? ? ? ? ? ? ? ? ? ?

loop_
_jana_atom_site_ADP_D_label
_jana_atom_site_ADP_D_type_symbol
_jana_atom_site_ADP_D_1111
_jana_atom_site_ADP_D_1112
_jana_atom_site_ADP_D_1113
_jana_atom_site_ADP_D_1122
_jana_atom_site_ADP_D_1123
_jana_atom_site_ADP_D_1133
_jana_atom_site_ADP_D_1222
_jana_atom_site_ADP_D_1223
_jana_atom_site_ADP_D_1233
_jana_atom_site_ADP_D_1333
_jana_atom_site_ADP_D_2222
_jana_atom_site_ADP_D_2223
_jana_atom_site_ADP_D_2233
_jana_atom_site_ADP_D_2333
_jana_atom_site_ADP_D_3333
? ? ? ? ? ? ? ? ? ? ? ? ? ? ? ? ?

loop_
_jana_atom_site_ADP_E_label
_jana_atom_site_ADP_E_type_symbol
_jana_atom_site_ADP_E_11111
_jana_atom_site_ADP_E_11112
_jana_atom_site_ADP_E_11113
_jana_atom_site_ADP_E_11122
_jana_atom_site_ADP_E_11123
_jana_atom_site_ADP_E_11133
_jana_atom_site_ADP_E_11222
_jana_atom_site_ADP_E_11223
_jana_atom_site_ADP_E_11233
_jana_atom_site_ADP_E_11333
_jana_atom_site_ADP_E_12222
_jana_atom_site_ADP_E_12223
_jana_atom_site_ADP_E_12233
_jana_atom_site_ADP_E_12333
_jana_atom_site_ADP_E_13333
_jana_atom_site_ADP_E_22222
_jana_atom_site_ADP_E_22223
_jana_atom_site_ADP_E_22233
_jana_atom_site_ADP_E_22333
_jana_atom_site_ADP_E_23333
_jana_atom_site_ADP_E_33333
? ? ? ? ? ? ? ? ? ? ? ? ? ? ? ? ? ? ? ? ? ? ?

loop_
_jana_atom_site_ADP_F_label
_jana_atom_site_ADP_F_type_symbol
_jana_atom_site_ADP_F_111111
_jana_atom_site_ADP_F_111112
_jana_atom_site_ADP_F_111113
_jana_atom_site_ADP_F_111122
_jana_atom_site_ADP_F_111123
_jana_atom_site_ADP_F_111133
_jana_atom_site_ADP_F_111222
_jana_atom_site_ADP_F_111223
_jana_atom_site_ADP_F_111233
_jana_atom_site_ADP_F_111333
_jana_atom_site_ADP_F_112222
_jana_atom_site_ADP_F_112223
_jana_atom_site_ADP_F_112233
_jana_atom_site_ADP_F_112333
_jana_atom_site_ADP_F_113333
_jana_atom_site_ADP_F_122222
_jana_atom_site_ADP_F_122223
_jana_atom_site_ADP_F_122233
_jana_atom_site_ADP_F_122333
_jana_atom_site_ADP_F_123333
_jana_atom_site_ADP_F_133333
_jana_atom_site_ADP_F_222222
_jana_atom_site_ADP_F_222223
_jana_atom_site_ADP_F_222233
_jana_atom_site_ADP_F_222333
_jana_atom_site_ADP_F_223333
_jana_atom_site_ADP_F_233333
_jana_atom_site_ADP_F_333333
? ? ? ? ? ? ? ? ? ? ? ? ? ? ? ? ? ? ? ? ? ? ? ? ? ? ? ? ? ?


#=======================================================================

# 10. MOLECULAR GEOMETRY


loop_
_geom_bond_atom_site_label_1
_geom_bond_atom_site_label_2
_geom_bond_site_symmetry_1
_geom_bond_site_symmetry_2
_geom_bond_distance
_geom_bond_publ_flag
Pb1 I1 . . 3.225(5) ?
Pb1 I1 . 2_555 3.225(5) ?
Pb1 I1 . 7_555 3.103(5) ?
Pb1 I1 . 8_554 3.103(5) ?
Pb1 I2 . . 3.157(3) ?
Pb1 I2 . 2_555 3.157(3) ?
Pb2 I2 . . 3.209(3) ?
Pb2 I3 . . 3.201(7) ?
Pb2 I3 . 7_555 3.129(7) ?
Pb2 I4 . 1_554 3.215(7) ?
Pb2 I4 . 7_555 3.113(7) ?
Pb2 I5 . . 3.111(3) ?
Pb3 I5 . . 3.317(3) ?
Pb3 I6 . 1_554 3.257(6) ?
Pb3 I6 . 7_555 3.090(6) ?
Pb3 I7 . . 3.198(6) ?
Pb3 I7 . 7_555 3.140(6) ?
Pb3 I8 . . 3.034(3) ?
I1 N1 . . 3.87(9) ?
I1 N1 . 7_455 3.89(9) ?
I6 N2 . 1_556 3.97(7) ?
I6 N3 . 7_455 3.33(5) ?
I7 N3 . 7_454 3.38(5) ?
I8 N3 . . 3.89(4) ?
I8 N3 . 7_454 3.96(7) ?
N1 C1 . . 1.44(10) ?
N1 H1n1 . . 0.87 ?
N1 H2n1 . . 0.87 ?
N1 H3n1 . . 0.87 ?
N2 C2 . . 1.54(10) ?
N2 H1n2 . . 0.87 ?
N2 H2n2 . . 0.87 ?
N2 H3n2 . . 0.87 ?
N3 C3 . . 1.45(9) ?
N3 H1n3 . . 0.87 ?
N3 H2n3 . . 0.87 ?
N3 H3n3 . . 0.87 ?
C1 H1c1 . . 0.96 ?
C1 H2c1 . . 0.96 ?
C1 H3c1 . . 0.96 ?
C2 H1c2 . . 0.96 ?
C2 H2c2 . . 0.96 ?
C2 H3c2 . . 0.96 ?
C3 C4 . . 1.49(7) ?
C3 H1c3 . . 0.96 ?
C3 H2c3 . . 0.96 ?
C4 C5 . . 1.53(8) ?
C4 H1c4 . . 0.96 ?
C4 H2c4 . . 0.96 ?
C5 C6 . . 1.49(7) ?
C5 H1c5 . . 0.96 ?
C5 H2c5 . . 0.96 ?
C6 H1c6 . . 0.96 ?
C6 H2c6 . . 0.96 ?
C6 H3c6 . . 0.96 ?

loop_
_geom_angle_atom_site_label_1
_geom_angle_atom_site_label_2
_geom_angle_atom_site_label_3
_geom_angle_site_symmetry_1
_geom_angle_site_symmetry_2
_geom_angle_site_symmetry_3
_geom_angle
_geom_angle_publ_flag
I1 Pb1 I1 . . 2_555 89.98(15) ?
I1 Pb1 I1 . . 7_555 89.43(12) ?
I1 Pb1 I1 . . 8_554 179.40(15) ?
I1 Pb1 I2 . . . 91.42(16) ?
I1 Pb1 I2 . . 2_555 91.60(16) ?
I1 Pb1 I1 2_555 . 7_555 179.40(15) ?
I1 Pb1 I1 2_555 . 8_554 89.43(12) ?
I1 Pb1 I2 2_555 . . 91.60(16) ?
I1 Pb1 I2 2_555 . 2_555 91.42(16) ?
I1 Pb1 I1 7_555 . 8_554 91.16(16) ?
I1 Pb1 I2 7_555 . . 88.28(16) ?
I1 Pb1 I2 7_555 . 2_555 88.73(16) ?
I1 Pb1 I2 8_554 . . 88.73(16) ?
I1 Pb1 I2 8_554 . 2_555 88.28(16) ?
I2 Pb1 I2 . . 2_555 175.7(3) ?
I2 Pb2 I3 . . . 89.78(16) ?
I2 Pb2 I3 . . 7_555 88.93(16) ?
I2 Pb2 I4 . . 1_554 90.20(16) ?
I2 Pb2 I4 . . 7_555 89.76(16) ?
I2 Pb2 I5 . . . 177.6(3) ?
I3 Pb2 I3 . . 7_555 89.43(17) ?
I3 Pb2 I4 . . 1_554 91.5(2) ?
I3 Pb2 I4 . . 7_555 178.93(18) ?
I3 Pb2 I5 . . . 91.49(17) ?
I3 Pb2 I4 7_555 . 1_554 178.70(17) ?
I3 Pb2 I4 7_555 . 7_555 89.6(2) ?
I3 Pb2 I5 7_555 . . 89.01(18) ?
I4 Pb2 I4 1_554 . 7_555 89.44(17) ?
I4 Pb2 I5 1_554 . . 91.85(17) ?
I4 Pb2 I5 7_555 . . 88.93(17) ?
I5 Pb3 I6 . . 1_554 88.00(16) ?
I5 Pb3 I6 . . 7_555 86.29(16) ?
I5 Pb3 I7 . . . 89.75(16) ?
I5 Pb3 I7 . . 7_555 88.85(16) ?
I5 Pb3 I8 . . . 176.0(2) ?
I6 Pb3 I6 1_554 . 7_555 89.16(14) ?
I6 Pb3 I7 1_554 . . 92.68(17) ?
I6 Pb3 I7 1_554 . 7_555 176.27(12) ?
I6 Pb3 I8 1_554 . . 91.80(18) ?
I6 Pb3 I7 7_555 . . 175.57(12) ?
I6 Pb3 I7 7_555 . 7_555 88.65(17) ?
I6 Pb3 I8 7_555 . . 89.72(19) ?
I7 Pb3 I7 . . 7_555 89.29(15) ?
I7 Pb3 I8 . . . 94.25(18) ?
I7 Pb3 I8 7_555 . . 91.21(19) ?
Pb1 I1 Pb1 . . 7_455 170.51(13) ?
Pb1 I1 N1 . . . 93.0(16) ?
Pb1 I1 N1 . . 7_455 91.2(16) ?
Pb1 I1 N1 7_455 . . 91.8(15) ?
Pb1 I1 N1 7_455 . 7_455 94.5(16) ?
N1 I1 N1 . . 7_455 112.3(16) ?
Pb1 I2 Pb2 . . . 166.93(11) ?
Pb2 I3 Pb2 . . 7_455 169.55(14) ?
Pb2 I4 Pb2 1_556 . 7_455 170.99(13) ?
Pb2 I5 Pb3 . . . 166.15(12) ?
Pb3 I6 Pb3 1_556 . 7_455 164.70(13) ?
Pb3 I6 N2 1_556 . 1_556 89.6(10) ?
Pb3 I6 N3 1_556 . 7_455 77.1(11) ?
Pb3 I6 N2 7_455 . 1_556 98.4(11) ?
Pb3 I6 N3 7_455 . 7_455 91.2(10) ?
N2 I6 N3 1_556 . 7_455 81.1(13) ?
Pb3 I7 Pb3 . . 7_455 171.63(14) ?
Pb3 I7 N3 . . 7_454 77.2(11) ?
Pb3 I7 N3 7_455 . 7_454 105.0(11) ?
Pb3 I8 N3 . . . 82.1(8) ?
Pb3 I8 N3 . . 7_454 70.5(8) ?
N3 I8 N3 . . 7_454 97.2(12) ?
I1 N1 I1 . . 7_555 70.1(10) ?
I1 N1 C1 . . . 134(5) ?
I1 N1 H1n1 . . . 84.38 ?
I1 N1 H2n1 . . . 29.16 ?
I1 N1 H3n1 . . . 105.9 ?
I1 N1 C1 7_555 . . 107(6) ?
I1 N1 H1n1 7_555 . . 143.07 ?
I1 N1 H2n1 7_555 . . 57 ?
I1 N1 H3n1 7_555 . . 56.31 ?
C1 N1 H1n1 . . . 109.47 ?
C1 N1 H2n1 . . . 109.47 ?
C1 N1 H3n1 . . . 109.47 ?
H1n1 N1 H2n1 . . . 109.47 ?
H1n1 N1 H3n1 . . . 109.47 ?
H2n1 N1 H3n1 . . . 109.47 ?
I6 N2 C2 1_554 . . 147(4) ?
I6 N2 H1n2 1_554 . . 89.94 ?
I6 N2 H2n2 1_554 . . 37.5 ?
I6 N2 H3n2 1_554 . . 87.51 ?
C2 N2 H1n2 . . . 109.47 ?
C2 N2 H2n2 . . . 109.47 ?
C2 N2 H3n2 . . . 109.47 ?
H1n2 N2 H2n2 . . . 109.47 ?
H1n2 N2 H3n2 . . . 109.47 ?
H2n2 N2 H3n2 . . . 109.47 ?
I6 N3 I7 7_555 . 7_554 88.1(15) ?
I6 N3 I8 7_555 . . 73.0(8) ?
I6 N3 I8 7_555 . 7_554 76.1(14) ?
I6 N3 C3 7_555 . . 135(3) ?
I6 N3 H1n3 7_555 . . 100.84 ?
I6 N3 H2n3 7_555 . . 90.36 ?
I6 N3 H3n3 7_555 . . 26.24 ?
I7 N3 I8 7_554 . . 160(2) ?
I7 N3 I8 7_554 . 7_554 76.5(13) ?
I7 N3 C3 7_554 . . 131(3) ?
I7 N3 H1n3 7_554 . . 25.45 ?
I7 N3 H2n3 7_554 . . 87.75 ?
I7 N3 H3n3 7_554 . . 106.29 ?
I8 N3 I8 . . 7_554 91.5(12) ?
I8 N3 C3 . . . 69(2) ?
I8 N3 H1n3 . . . 164.45 ?
I8 N3 H2n3 . . . 85.16 ?
I8 N3 H3n3 . . . 58.92 ?
I8 N3 C3 7_554 . . 127(4) ?
I8 N3 H1n3 7_554 . . 100.95 ?
I8 N3 H2n3 7_554 . . 18.08 ?
I8 N3 H3n3 7_554 . . 98.74 ?
C3 N3 H1n3 . . . 109.47 ?
C3 N3 H2n3 . . . 109.48 ?
C3 N3 H3n3 . . . 109.47 ?
H1n3 N3 H2n3 . . . 109.47 ?
H1n3 N3 H3n3 . . . 109.47 ?
H2n3 N3 H3n3 . . . 109.47 ?
N1 C1 H1c1 . . . 109.47 ?
N1 C1 H2c1 . . . 109.47 ?
N1 C1 H3c1 . . . 109.47 ?
H1c1 C1 H2c1 . . . 109.47 ?
H1c1 C1 H3c1 . . . 109.47 ?
H2c1 C1 H3c1 . . . 109.47 ?
N2 C2 H1c2 . . . 109.47 ?
N2 C2 H2c2 . . . 109.47 ?
N2 C2 H3c2 . . . 109.47 ?
H1c2 C2 H2c2 . . . 109.47 ?
H1c2 C2 H3c2 . . . 109.47 ?
H2c2 C2 H3c2 . . . 109.47 ?
N3 C3 C4 . . . 109(5) ?
N3 C3 H1c3 . . . 109.47 ?
N3 C3 H2c3 . . . 109.47 ?
C4 C3 H1c3 . . . 109.47 ?
C4 C3 H2c3 . . . 109.47 ?
H1c3 C3 H2c3 . . . 110.07 ?
C3 C4 C5 . . . 110(4) ?
C3 C4 H1c4 . . . 109.47 ?
C3 C4 H2c4 . . . 109.47 ?
C5 C4 H1c4 . . . 109.47 ?
C5 C4 H2c4 . . . 109.47 ?
H1c4 C4 H2c4 . . . 109.33 ?
C4 C5 C6 . . . 108(4) ?
C4 C5 H1c5 . . . 109.47 ?
C4 C5 H2c5 . . . 109.48 ?
C6 C5 H1c5 . . . 109.47 ?
C6 C5 H2c5 . . . 109.47 ?
H1c5 C5 H2c5 . . . 110.49 ?
C5 C6 H1c6 . . . 109.47 ?
C5 C6 H2c6 . . . 109.47 ?
C5 C6 H3c6 . . . 109.47 ?
H1c6 C6 H2c6 . . . 109.47 ?
H1c6 C6 H3c6 . . . 109.47 ?
H2c6 C6 H3c6 . . . 109.47 ?

loop_
_geom_torsion_atom_site_label_1
_geom_torsion_atom_site_label_2
_geom_torsion_atom_site_label_3
_geom_torsion_atom_site_label_4
_geom_torsion_site_symmetry_1
_geom_torsion_site_symmetry_2
_geom_torsion_site_symmetry_3
_geom_torsion_site_symmetry_4
_geom_torsion
_geom_torsion_publ_flag
? ? ? ? ? ? ? ? ? ?

loop_
_geom_hbond_atom_site_label_D
_geom_hbond_atom_site_label_H
_geom_hbond_atom_site_label_A
_geom_hbond_site_symmetry_D
_geom_hbond_site_symmetry_H
_geom_hbond_site_symmetry_A
_geom_hbond_distance_DH
_geom_hbond_distance_HA
_geom_hbond_distance_DA
_geom_hbond_angle_DHA
_geom_hbond_publ_flag
? ? ? ? ? ? ? ? ? ? ?


#=======================================================================

# 11. STRUCTURE-FACTOR LIST

loop_
_refln_index_h
_refln_index_k
_refln_index_l
_refln_F_squared_calc
_refln_F_squared_meas
_refln_F_squared_sigma
_refln_observed_status
? ? ? ? ? ? ?

loop_
_twin_refln_datum_id
_twin_refln_individual_id
_twin_refln_index_h
_twin_refln_index_k
_twin_refln_index_l
_twin_refln_F_squared_calc
_twin_refln_F_squared_meas
_twin_refln_F_squared_sigma
_twin_refln_include_status
1 3 0 0 -2 667332. 969009. 5775. o
1 2 -2 0 0 667332. 969009. 5775. o
1 1 2 0 0 667332. 969009. 5775. o
2 3 0 0 -6 24336. 22229. 1822. o
2 2 -6 0 0 24336. 22229. 1822. o
2 1 6 0 0 24336. 22229. 1822. o
3 3 0 0 -8 182662. 205506. 2236. o
3 2 -8 0 0 182662. 205506. 2236. o
3 1 8 0 0 182662. 205506. 2236. o
4 3 0 0 -10 2890. 3176. 907. o
4 2 -10 0 0 2890. 3176. 907. o
4 1 10 0 0 2890. 3176. 907. o
5 3 0 -2 -2 5662. 18600. 4526. o
5 2 -2 2 0 5662. 18600. 4526. o
5 1 2 2 0 5662. 18600. 4526. o
6 3 0 -2 2 6118. 3176. 14517. <
6 2 2 2 0 6118. 3176. 14517. <
6 1 -2 2 0 6118. 3176. 14517. <
7 3 0 -2 -4 353526. 437324. 2570. o
7 2 -4 2 0 353526. 437324. 2570. o
7 1 4 2 0 353526. 437324. 2570. o
8 3 0 -2 -6 4071. 4990. 906. o
8 2 -6 2 0 4071. 4990. 906. o
8 1 6 2 0 4071. 4990. 906. o
9 3 0 -2 -8 34092. 62604. 1022. o
9 2 -8 2 0 34092. 62604. 1022. o
9 1 8 2 0 34092. 62604. 1022. o
10 3 0 -2 -10 520. 2268. 906. o
10 2 -10 2 0 520. 2268. 906. o
10 1 10 2 0 520. 2268. 906. o
11 3 0 -4 -2 10549. 8166. 4538. <
11 2 -2 4 0 10549. 8166. 4538. <
11 1 2 4 0 10549. 8166. 4538. <
12 3 0 -4 2 10963. 11341. 13156. <
12 2 2 4 0 10963. 11341. 13156. <
12 1 -2 4 0 10963. 11341. 13156. <
13 3 0 -4 -4 172616. 195072. 2800. o
13 2 -4 4 0 172616. 195072. 2800. o
13 1 4 4 0 172616. 195072. 2800. o
14 3 0 -4 4 172445. 173750. 7250. o
14 2 4 4 0 172445. 173750. 7250. o
14 1 -4 4 0 172445. 173750. 7250. o
15 3 0 -4 -6 1249. 0. 907. <
15 2 -6 4 0 1249. 0. 907. <
15 1 6 4 0 1249. 0. 907. <
16 3 0 -4 -8 15308. 12702. 918. o
16 2 -8 4 0 15308. 12702. 918. o
16 1 8 4 0 15308. 12702. 918. o
17 3 0 -4 -10 111. 907. 453. <
17 2 -10 4 0 111. 907. 453. <
17 1 10 4 0 111. 907. 453. <
18 3 0 -6 0 474836. 673225. 29789. o
18 2 0 6 0 474836. 673225. 29789. o
18 1 0 6 0 474836. 673225. 29789. o
19 3 0 -6 -2 2411. 6805. 4989. <
19 2 -2 6 0 2411. 6805. 4989. <
19 1 2 6 0 2411. 6805. 4989. <
20 3 0 -6 2 2364. 10434. 9979. <
20 2 2 6 0 2364. 10434. 9979. <
20 1 -2 6 0 2364. 10434. 9979. <
21 3 0 -6 -4 151809. 171028. 2392. o
21 2 -4 6 0 151809. 171028. 2392. o
21 1 4 6 0 151809. 171028. 2392. o
22 3 0 -6 4 151916. 132014. 6466. o
22 2 4 6 0 151916. 132014. 6466. o
22 1 -4 6 0 151916. 132014. 6466. o
23 3 0 -6 -6 1451. 454. 908. <
23 2 -6 6 0 1451. 454. 908. <
23 1 6 6 0 1451. 454. 908. <
24 3 0 -6 -8 10396. 7258. 915. o
24 2 -8 6 0 10396. 7258. 915. o
24 1 8 6 0 10396. 7258. 915. o
25 3 0 -6 -10 174. 0. 454. <
25 2 -10 6 0 174. 0. 454. <
25 1 10 6 0 174. 0. 454. <
26 3 0 -8 0 454831. 543026. 21679. o
26 2 0 8 0 454831. 543026. 21679. o
26 1 0 8 0 454831. 543026. 21679. o
27 3 0 -8 -2 1449. 907. 9527. <
27 2 -2 8 0 1449. 907. 9527. <
27 1 2 8 0 1449. 907. 9527. <
28 3 0 -8 2 1563. 7258. 12702. <
28 2 2 8 0 1563. 7258. 12702. <
28 1 -2 8 0 1563. 7258. 12702. <
29 3 0 -8 -4 96176. 117043. 1980. o
29 2 -4 8 0 96176. 117043. 1980. o
29 1 4 8 0 96176. 117043. 1980. o
30 3 0 -8 4 95994. 84834. 5942. o
30 2 4 8 0 95994. 84834. 5942. o
30 1 -4 8 0 95994. 84834. 5942. o
31 3 0 -8 -6 1847. 454. 908. <
31 2 -6 8 0 1847. 454. 908. <
31 1 6 8 0 1847. 454. 908. <
32 3 0 -8 -8 10855. 6351. 918. o
32 2 -8 8 0 10855. 6351. 918. o
32 1 8 8 0 10855. 6351. 918. o
33 3 0 -8 -10 127. 454. 454. <
33 2 -10 8 0 127. 454. 454. <
33 1 10 8 0 127. 454. 454. <
34 3 0 -10 0 324501. 339335. 15338. o
34 2 0 10 0 324501. 339335. 15338. o
34 1 0 10 0 324501. 339335. 15338. o
35 3 0 -10 -2 7104. 5444. 10434. <
35 2 -2 10 0 7104. 5444. 10434. <
35 1 2 10 0 7104. 5444. 10434. <
36 3 0 -10 2 6931. 2268. 9527. <
36 2 2 10 0 6931. 2268. 9527. <
36 1 -2 10 0 6931. 2268. 9527. <
37 3 0 -10 -4 101075. 67595. 2969. o
37 2 -4 10 0 101075. 67595. 2969. o
37 1 4 10 0 101075. 67595. 2969. o
38 3 0 -10 4 101308. 73492. 7343. o
38 2 4 10 0 101308. 73492. 7343. o
38 1 -4 10 0 101308. 73492. 7343. o
39 3 0 -10 -6 1302. 1361. 907. <
39 2 -6 10 0 1302. 1361. 907. <
39 1 6 10 0 1302. 1361. 907. <
40 3 0 -10 -8 20954. 35839. 760. o
40 2 -8 10 0 20954. 35839. 760. o
40 1 8 10 0 20954. 35839. 760. o
41 3 0 -10 -10 258. 1361. 907. <
41 2 -10 10 0 258. 1361. 907. <
41 1 10 10 0 258. 1361. 907. <
42 3 0 -12 0 3313990. 4234880. 77207. o
42 2 0 12 0 3313990. 4234880. 77207. o
42 1 0 12 0 3313990. 4234880. 77207. o
43 3 0 -12 -2 1167530. 1449430. 13952. o
43 2 -2 12 0 1167530. 1449430. 13952. o
43 1 2 12 0 1167530. 1449430. 13952. o
44 3 0 -12 2 1168990. 1272050. 12494. o
44 2 2 12 0 1168990. 1272050. 12494. o
44 1 -2 12 0 1168990. 1272050. 12494. o
45 3 0 -12 -4 1820380. 1734330. 15197. o
45 2 -4 12 0 1820380. 1734330. 15197. o
45 1 4 12 0 1820380. 1734330. 15197. o
46 3 0 -12 -6 6124. 7712. 904. o
46 2 -6 12 0 6124. 7712. 904. o
46 1 6 12 0 6124. 7712. 904. o
47 3 0 -12 -8 145688. 161955. 1391. o
47 2 -8 12 0 145688. 161955. 1391. o
47 1 8 12 0 145688. 161955. 1391. o
48 3 0 -12 -10 3620. 4537. 906. o
48 2 -10 12 0 3620. 4537. 906. o
48 1 10 12 0 3620. 4537. 906. o
49 3 0 -14 0 450142. 508548. 9677. o
49 2 0 14 0 450142. 508548. 9677. o
49 1 0 14 0 450142. 508548. 9677. o
50 3 0 -14 -2 94363. 122487. 11723. o
50 2 -2 14 0 94363. 122487. 11723. o
50 1 2 14 0 94363. 122487. 11723. o
51 3 0 -14 2 94418. 94814. 7257. o
51 2 2 14 0 94418. 94814. 7257. o
51 1 -2 14 0 94418. 94814. 7257. o
52 3 0 -14 -4 247209. 156511. 4372. o
52 2 -4 14 0 247209. 156511. 4372. o
52 1 4 14 0 247209. 156511. 4372. o
53 3 0 -14 -6 1492. 2268. 907. o
53 2 -6 14 0 1492. 2268. 907. o
53 1 6 14 0 1492. 2268. 907. o
54 3 0 -14 -8 30657. 47180. 1219. o
54 2 -8 14 0 30657. 47180. 1219. o
54 1 8 14 0 30657. 47180. 1219. o
55 3 0 -14 -10 552. 2268. 906. o
55 2 -10 14 0 552. 2268. 906. o
55 1 10 14 0 552. 2268. 906. o
56 3 0 -16 0 245337. 258584. 7595. o
56 2 0 16 0 245337. 258584. 7595. o
56 1 0 16 0 245337. 258584. 7595. o
57 3 0 -16 -2 27634. 19054. 7265. o
57 2 -2 16 0 27634. 19054. 7265. o
57 1 2 16 0 27634. 19054. 7265. o
58 3 0 -16 2 28118. 16785. 5455. o
58 2 2 16 0 28118. 16785. 5455. o
58 1 -2 16 0 28118. 16785. 5455. o
59 3 0 -16 -4 94340. 75307. 5073. o
59 2 -4 16 0 94340. 75307. 5073. o
59 1 4 16 0 94340. 75307. 5073. o
60 3 0 -16 4 94448. 75307. 5520. o
60 2 4 16 0 94448. 75307. 5520. o
60 1 -4 16 0 94448. 75307. 5520. o
61 3 0 -16 -6 1377. 907. 907. <
61 2 -6 16 0 1377. 907. 907. <
61 1 6 16 0 1377. 907. 907. <
62 3 0 -16 -8 10912. 6351. 918. o
62 2 -8 16 0 10912. 6351. 918. o
62 1 8 16 0 10912. 6351. 918. o
63 3 0 -16 -10 57. 454. 907. <
63 2 -10 16 0 57. 454. 907. <
63 1 10 16 0 57. 454. 907. <
64 3 0 -18 0 150193. 166945. 5774. o
64 2 0 18 0 150193. 166945. 5774. o
64 1 0 18 0 150193. 166945. 5774. o
65 3 0 -18 -2 2957. 5898. 5443. <
65 2 -2 18 0 2957. 5898. 5443. <
65 1 2 18 0 2957. 5898. 5443. <
66 3 0 -18 2 2972. 3629. 2268. <
66 2 2 18 0 2972. 3629. 2268. <
66 1 -2 18 0 2972. 3629. 2268. <
67 3 0 -18 -4 72055. 54439. 4599. o
67 2 -4 18 0 72055. 54439. 4599. o
67 1 4 18 0 72055. 54439. 4599. o
68 3 0 -18 4 72216. 50356. 4610. o
68 2 4 18 0 72216. 50356. 4610. o
68 1 -4 18 0 72216. 50356. 4610. o
69 3 0 -18 -6 1227. 2268. 1361. <
69 2 -6 18 0 1227. 2268. 1361. <
69 1 6 18 0 1227. 2268. 1361. <
70 3 0 -18 -8 6767. 4537. 911. o
70 2 -8 18 0 6767. 4537. 911. o
70 1 8 18 0 6767. 4537. 911. o
71 3 0 -18 -10 114. 454. 907. <
71 2 -10 18 0 114. 454. 907. <
71 1 10 18 0 114. 454. 907. <
72 3 0 -20 0 72826. 70770. 4545. o
72 2 0 20 0 72826. 70770. 4545. o
72 1 0 20 0 72826. 70770. 4545. o
73 3 0 -20 -2 569. 1361. 4537. <
73 2 -2 20 0 569. 1361. 4537. <
73 1 2 20 0 569. 1361. 4537. <
74 3 0 -20 2 615. -454. 2268. <
74 2 2 20 0 615. -454. 2268. <
74 1 -2 20 0 615. -454. 2268. <
75 3 0 -20 -4 39145. 33570. 5454. o
75 2 -4 20 0 39145. 33570. 5454. o
75 1 4 20 0 39145. 33570. 5454. o
76 3 0 -20 4 39015. 27219. 3656. o
76 2 4 20 0 39015. 27219. 3656. o
76 1 -4 20 0 39015. 27219. 3656. o
77 3 0 -20 -6 3561. 2722. 2269. <
77 2 -6 20 0 3561. 2722. 2269. <
77 1 6 20 0 3561. 2722. 2269. <
78 3 0 -20 -8 6714. 2722. 1364. <
78 2 -8 20 0 6714. 2722. 1364. <
78 1 8 20 0 6714. 2722. 1364. <
79 3 0 -20 -10 123. 0. 907. <
79 2 -10 20 0 123. 0. 907. <
79 1 10 20 0 123. 0. 907. <
80 3 0 -22 0 5007. -25405. 4052. <
80 2 0 22 0 5007. -25405. 4052. <
80 1 0 22 0 5007. -25405. 4052. <
81 3 0 -22 -2 3480. -3629. 4082. <
81 2 -2 22 0 3480. -3629. 4082. <
81 1 2 22 0 3480. -3629. 4082. <
82 3 0 -22 2 3576. 907. 1815. <
82 2 2 22 0 3576. 907. 1815. <
82 1 -2 22 0 3576. 907. 1815. <
83 3 0 -22 -4 29561. -56253. 6711. <
83 2 -4 22 0 29561. -56253. 6711. <
83 1 4 22 0 29561. -56253. 6711. <
84 3 0 -22 -6 1559. 4083. 2267. <
84 2 -6 22 0 1559. 4083. 2267. <
84 1 6 22 0 1559. 4083. 2267. <
85 3 0 -22 -8 10926. 12702. 1811. o
85 2 -8 22 0 10926. 12702. 1811. o
85 1 8 22 0 10926. 12702. 1811. o
86 3 0 -22 -10 217. 0. 907. <
86 2 -10 22 0 217. 0. 907. <
86 1 10 22 0 217. 0. 907. <
87 3 0 -24 -2 669029. 711332. 6614. o
87 2 -2 24 0 669029. 711332. 6614. o
87 1 2 24 0 669029. 711332. 6614. o
88 3 0 -24 2 667335. 646006. 6088. o
88 2 2 24 0 667335. 646006. 6088. o
88 1 -2 24 0 667335. 646006. 6088. o
89 3 0 -24 -6 52222. 26312. 2809. o
89 2 -6 24 0 52222. 26312. 2809. o
89 1 6 24 0 52222. 26312. 2809. o
90 3 0 -24 -8 87185. 55346. 2503. o
90 2 -8 24 0 87185. 55346. 2503. o
90 1 8 24 0 87185. 55346. 2503. o
91 3 0 -24 -10 3032. 2722. 908. o
91 2 -10 24 0 3032. 2722. 908. o
91 1 10 24 0 3032. 2722. 908. o
92 3 0 -26 0 1420700. 1685330. 31513. o
92 2 0 26 0 1420700. 1685330. 31513. o
92 1 0 26 0 1420700. 1685330. 31513. o
93 3 0 -26 -2 65854. 68956. 4069. o
93 2 -2 26 0 65854. 68956. 4069. o
93 1 2 26 0 65854. 68956. 4069. o
94 3 0 -26 2 65234. 60790. 2749. o
94 2 2 26 0 65234. 60790. 2749. o
94 1 -2 26 0 65234. 60790. 2749. o
95 3 0 -26 4 378286. 332530. 6578. o
95 2 4 26 0 378286. 332530. 6578. o
95 1 -4 26 0 378286. 332530. 6578. o
96 3 0 -26 -6 7942. 4083. 2724. <
96 2 -6 26 0 7942. 4083. 2724. <
96 1 6 26 0 7942. 4083. 2724. <
97 3 0 -26 -8 23992. 37653. 2214. o
97 2 -8 26 0 23992. 37653. 2214. o
97 1 8 26 0 23992. 37653. 2214. o
98 3 0 -26 -10 763. 2268. 1360. <
98 2 -10 26 0 763. 2268. 1360. <
98 1 10 26 0 763. 2268. 1360. <
99 3 0 -28 0 305337. 314837. 4359. o
99 2 0 28 0 305337. 314837. 4359. o
99 1 0 28 0 305337. 314837. 4359. o
100 3 0 -28 -2 24843. 23136. 2726. o
100 2 -2 28 0 24843. 23136. 2726. o
100 1 2 28 0 24843. 23136. 2726. o
101 3 0 -28 2 24584. 20414. 2279. o
101 2 2 28 0 24584. 20414. 2279. o
101 1 -2 28 0 24584. 20414. 2279. o
102 3 0 -28 -4 81545. 59429. 3297. o
102 2 -4 28 0 81545. 59429. 3297. o
102 1 4 28 0 81545. 59429. 3297. o
103 3 0 -28 4 81349. 58068. 3302. o
103 2 4 28 0 81349. 58068. 3302. o
103 1 -4 28 0 81349. 58068. 3302. o
104 3 0 -28 -6 1071. 3176. 3175. <
104 2 -6 28 0 1071. 3176. 3175. <
104 1 6 28 0 1071. 3176. 3175. <
105 3 0 -28 -8 6032. 907. 1364. <
105 2 -8 28 0 6032. 907. 1364. <
105 1 8 28 0 6032. 907. 1364. <
106 3 0 -28 -10 68. 907. 907. <
106 2 -10 28 0 68. 907. 907. <
106 1 10 28 0 68. 907. 907. <
107 3 0 -30 0 137335. 139726. 3148. o
107 2 0 30 0 137335. 139726. 3148. o
107 1 0 30 0 137335. 139726. 3148. o
108 3 0 -30 -2 26067. 24044. 2727. o
108 2 -2 30 0 26067. 24044. 2727. o
108 1 2 30 0 26067. 24044. 2727. o
109 3 0 -30 2 25974. 20868. 2282. o
109 2 2 30 0 25974. 20868. 2282. o
109 1 -2 30 0 25974. 20868. 2282. o
110 3 0 -30 -4 32213. 29941. 2729. o
110 2 -4 30 0 32213. 29941. 2729. o
110 1 4 30 0 32213. 29941. 2729. o
111 3 0 -30 4 32318. 24044. 2744. o
111 2 4 30 0 32318. 24044. 2744. o
111 1 -4 30 0 32318. 24044. 2744. o
112 3 0 -30 -6 1259. 3629. 2721. <
112 2 -6 30 0 1259. 3629. 2721. <
112 1 6 30 0 1259. 3629. 2721. <
113 3 0 -30 -8 2707. 3176. 1361. o
113 2 -8 30 0 2707. 3176. 1361. o
113 1 8 30 0 2707. 3176. 1361. o
114 3 0 -30 -10 59. 454. 907. <
114 2 -10 30 0 59. 454. 907. <
114 1 10 30 0 59. 454. 907. <
115 3 0 -32 0 81861. 72131. 2353. o
115 2 0 32 0 81861. 72131. 2353. o
115 1 0 32 0 81861. 72131. 2353. o
116 3 0 -32 -2 24064. 24497. 2721. o
116 2 -2 32 0 24064. 24497. 2721. o
116 1 2 32 0 24064. 24497. 2721. o
117 3 0 -32 2 24144. 19961. 1828. o
117 2 2 32 0 24144. 19961. 1828. o
117 1 -2 32 0 24144. 19961. 1828. o
118 3 0 -32 -4 15637. 7712. 2278. o
118 2 -4 32 0 15637. 7712. 2278. o
118 1 4 32 0 15637. 7712. 2278. o
119 3 0 -32 4 15563. 8619. 1826. o
119 2 4 32 0 15563. 8619. 1826. o
119 1 -4 32 0 15563. 8619. 1826. o
120 3 0 -32 -6 1658. 2268. 2722. <
120 2 -6 32 0 1658. 2268. 2722. <
120 1 6 32 0 1658. 2268. 2722. <
121 3 0 -32 -8 2456. 2722. 1361. <
121 2 -8 32 0 2456. 2722. 1361. <
121 1 8 32 0 2456. 2722. 1361. <
122 3 0 -32 -10 81. 454. 1361. <
122 2 -10 32 0 81. 454. 1361. <
122 1 10 32 0 81. 454. 1361. <
123 3 0 -34 0 15230. 14971. 2722. o
123 2 0 34 0 15230. 14971. 2722. o
123 1 0 34 0 15230. 14971. 2722. o
124 3 0 -34 -2 16302. 15878. 2723. o
124 2 -2 34 0 16302. 15878. 2723. o
124 1 2 34 0 16302. 15878. 2723. o
125 3 0 -34 2 16188. 11795. 1372. o
125 2 2 34 0 16188. 11795. 1372. o
125 1 -2 34 0 16188. 11795. 1372. o
126 3 0 -34 -4 5341. -4083. 2267. <
126 2 -4 34 0 5341. -4083. 2267. <
126 1 4 34 0 5341. -4083. 2267. <
127 3 0 -34 4 5292. -6805. 2264. <
127 2 4 34 0 5292. -6805. 2264. <
127 1 -4 34 0 5292. -6805. 2264. <
128 3 0 -34 -6 670. -907. 1815. <
128 2 -6 34 0 670. -907. 1815. <
128 1 6 34 0 670. -907. 1815. <
129 3 0 -34 -8 3290. -1361. 1361. <
129 2 -8 34 0 3290. -1361. 1361. <
129 1 8 34 0 3290. -1361. 1361. <
130 3 0 -36 0 499477. 589299. 2826. o
130 2 0 36 0 499477. 589299. 2826. o
130 1 0 36 0 499477. 589299. 2826. o
131 3 0 -36 -2 7841. 9073. 2267. o
131 2 -2 36 0 7841. 9073. 2267. o
131 1 2 36 0 7841. 9073. 2267. o
132 3 0 -36 2 8367. 10888. 1811. o
132 2 2 36 0 8367. 10888. 1811. o
132 1 -2 36 0 8367. 10888. 1811. o
133 3 0 -36 4 306640. 241345. 5083. o
133 2 4 36 0 306640. 241345. 5083. o
133 1 -4 36 0 306640. 241345. 5083. o
134 3 0 -36 -6 23978. 11341. 2291. o
134 2 -6 36 0 23978. 11341. 2291. o
134 1 6 36 0 23978. 11341. 2291. o
135 3 0 -36 -8 34888. 18600. 1871. o
135 2 -8 36 0 34888. 18600. 1871. o
135 1 8 36 0 34888. 18600. 1871. o
136 3 0 -38 0 72106. 77575. 2219. o
136 2 0 38 0 72106. 77575. 2219. o
136 1 0 38 0 72106. 77575. 2219. o
137 3 0 -38 -2 17184. 27219. 2240. o
137 2 -2 38 0 17184. 27219. 2240. o
137 1 2 38 0 17184. 27219. 2240. o
138 3 0 -38 2 17608. 21776. 1802. o
138 2 2 38 0 17608. 21776. 1802. o
138 1 -2 38 0 17608. 21776. 1802. o
139 3 0 -38 4 70408. 43551. 2857. o
139 2 4 38 0 70408. 43551. 2857. o
139 1 -4 38 0 70408. 43551. 2857. o
140 3 0 -38 -6 3857. 2722. 2269. <
140 2 -6 38 0 3857. 2722. 2269. <
140 1 6 38 0 3857. 2722. 2269. <
141 3 0 -38 -8 11484. 12702. 1812. o
141 2 -8 38 0 11484. 12702. 1812. o
141 1 8 38 0 11484. 12702. 1812. o
142 3 0 -40 0 7411. 5444. 1816. o
142 2 0 40 0 7411. 5444. 1816. o
142 1 0 40 0 7411. 5444. 1816. o
143 3 0 -40 -2 1026. -907. 1815. <
143 2 -2 40 0 1026. -907. 1815. <
143 1 2 40 0 1026. -907. 1815. <
144 3 0 -40 2 1137. 907. 1361. <
144 2 2 40 0 1137. 907. 1361. <
144 1 -2 40 0 1137. 907. 1361. <
145 3 0 -40 -4 8443. 7258. 1816. o
145 2 -4 40 0 8443. 7258. 1816. o
145 1 4 40 0 8443. 7258. 1816. o
146 3 0 -40 4 8484. 7712. 1816. o
146 2 4 40 0 8484. 7712. 1816. o
146 1 -4 40 0 8484. 7712. 1816. o
147 3 0 -40 -6 989. 907. 1815. <
147 2 -6 40 0 989. 907. 1815. <
147 1 6 40 0 989. 907. 1815. <
148 3 0 -40 -8 1986. 1815. 1361. <
148 2 -8 40 0 1986. 1815. 1361. <
148 1 8 40 0 1986. 1815. 1361. <
149 3 0 -42 0 2633. 3629. 1360. o
149 2 0 42 0 2633. 3629. 1360. o
149 1 0 42 0 2633. 3629. 1360. o
150 3 0 -42 -2 2483. 907. 1815. <
150 2 -2 42 0 2483. 907. 1815. <
150 1 2 42 0 2483. 907. 1815. <
151 3 0 -42 2 2438. 2722. 1361. <
151 2 2 42 0 2438. 2722. 1361. <
151 1 -2 42 0 2438. 2722. 1361. <
152 3 0 -42 -4 5633. 3176. 1363. o
152 2 -4 42 0 5633. 3176. 1363. o
152 1 4 42 0 5633. 3176. 1363. o
153 3 0 -42 4 5668. 2722. 1363. <
153 2 4 42 0 5668. 2722. 1363. <
153 1 -4 42 0 5668. 2722. 1363. <
154 3 0 -42 -6 1751. 4083. 1813. o
154 2 -6 42 0 1751. 4083. 1813. o
154 1 6 42 0 1751. 4083. 1813. o
155 3 0 -42 -8 965. 454. 907. <
155 2 -8 42 0 965. 454. 907. <
155 1 8 42 0 965. 454. 907. <
156 3 0 -44 0 348. 907. 1361. <
156 2 0 44 0 348. 907. 1361. <
156 1 0 44 0 348. 907. 1361. <
157 3 0 -44 -2 464. -454. 1815. <
157 2 -2 44 0 464. -454. 1815. <
157 1 2 44 0 464. -454. 1815. <
158 3 0 -44 2 490. 0. 1361. <
158 2 2 44 0 490. 0. 1361. <
158 1 -2 44 0 490. 0. 1361. <
159 3 0 -44 -4 2619. 3629. 1814. <
159 2 -4 44 0 2619. 3629. 1814. <
159 1 4 44 0 2619. 3629. 1814. <
160 3 0 -44 4 2601. 1361. 1361. <
160 2 4 44 0 2601. 1361. 1361. <
160 1 -4 44 0 2601. 1361. 1361. <
161 3 0 -44 -6 1118. -907. 1815. <
161 2 -6 44 0 1118. -907. 1815. <
161 1 6 44 0 1118. -907. 1815. <
162 3 0 -44 -8 947. 907. 907. <
162 2 -8 44 0 947. 907. 907. <
162 1 8 44 0 947. 907. 907. <
163 3 0 -46 0 23030. 18600. 2279. o
163 2 0 46 0 23030. 18600. 2279. o
163 1 0 46 0 23030. 18600. 2279. o
164 3 0 -46 -2 9945. 8166. 1817. o
164 2 -2 46 0 9945. 8166. 1817. o
164 1 2 46 0 9945. 8166. 1817. o
165 3 0 -46 2 9975. 6805. 915. o
165 2 2 46 0 9975. 6805. 915. o
165 1 -2 46 0 9975. 6805. 915. o
166 3 0 -46 -4 3993. -2268. 1814. <
166 2 -4 46 0 3993. -2268. 1814. <
166 1 4 46 0 3993. -2268. 1814. <
167 3 0 -46 4 4019. -454. 1362. <
167 2 4 46 0 4019. -454. 1362. <
167 1 -4 46 0 4019. -454. 1362. <
168 3 0 -46 -6 1412. 907. 1815. <
168 2 -6 46 0 1412. 907. 1815. <
168 1 6 46 0 1412. 907. 1815. <
169 3 0 -46 -8 1012. 1815. 907. <
169 2 -8 46 0 1012. 1815. 907. <
169 1 8 46 0 1012. 1815. 907. <
170 3 0 -48 0 794979. 1040230. 18809. o
170 2 0 48 0 794979. 1040230. 18809. o
170 1 0 48 0 794979. 1040230. 18809. o
171 3 0 -48 -2 357382. 395134. 2995. o
171 2 -2 48 0 357382. 395134. 2995. o
171 1 2 48 0 357382. 395134. 2995. o
172 3 0 -48 2 357212. 370637. 2188. o
172 2 2 48 0 357212. 370637. 2188. o
172 1 -2 48 0 357212. 370637. 2188. o
173 3 0 -48 -4 242883. 205960. 3792. o
173 2 -4 48 0 242883. 205960. 3792. o
173 1 4 48 0 242883. 205960. 3792. o
174 3 0 -48 4 242816. 141087. 4761. o
174 2 4 48 0 242816. 141087. 4761. o
174 1 -4 48 0 242816. 141087. 4761. o
175 3 0 -48 -6 39030. 24044. 2319. o
175 2 -6 48 0 39030. 24044. 2319. o
175 1 6 48 0 39030. 24044. 2319. o
176 3 0 -48 -8 13530. 4083. 1374. o
176 2 -8 48 0 13530. 4083. 1374. o
176 1 8 48 0 13530. 4083. 1374. o
177 3 0 -50 0 416712. 513992. 2157. o
177 2 0 50 0 416712. 513992. 2157. o
177 1 0 50 0 416712. 513992. 2157. o
178 3 0 -50 -2 161346. 168760. 3070. o
178 2 -2 50 0 161346. 168760. 3070. o
178 1 2 50 0 161346. 168760. 3070. o
179 3 0 -50 2 160960. 148799. 2070. o
179 2 2 50 0 160960. 148799. 2070. o
179 1 -2 50 0 160960. 148799. 2070. o
180 3 0 -50 -4 106565. 83019. 3350. o
180 2 -4 50 0 106565. 83019. 3350. o
180 1 4 50 0 106565. 83019. 3350. o
181 3 0 -50 4 106342. 44458. 2701. o
181 2 4 50 0 106342. 44458. 2701. o
181 1 -4 50 0 106342. 44458. 2701. o
182 3 0 -50 -6 14047. 12249. 1365. o
182 2 -6 50 0 14047. 12249. 1365. o
182 1 6 50 0 14047. 12249. 1365. o
183 3 0 -50 -8 5615. 5898. 1361. o
183 2 -8 50 0 5615. 5898. 1361. o
183 1 8 50 0 5615. 5898. 1361. o
184 3 0 -52 0 27288. 22683. 2281. o
184 2 0 52 0 27288. 22683. 2281. o
184 1 0 52 0 27288. 22683. 2281. o
185 3 0 -52 -2 19605. 18600. 1817. o
185 2 -2 52 0 19605. 18600. 1817. o
185 1 2 52 0 19605. 18600. 1817. o
186 3 0 -52 2 19567. 18146. 1366. o
186 2 2 52 0 19567. 18146. 1366. o
186 1 -2 52 0 19567. 18146. 1366. o
187 3 0 -52 -4 6427. 1815. 1364. <
187 2 -4 52 0 6427. 1815. 1364. <
187 1 4 52 0 6427. 1815. 1364. <
188 3 0 -52 4 6401. 4083. 1363. o
188 2 4 52 0 6401. 4083. 1363. o
188 1 -4 52 0 6401. 4083. 1363. o
189 3 0 -52 -6 1600. 1361. 907. <
189 2 -6 52 0 1600. 1361. 907. <
189 1 6 52 0 1600. 1361. 907. <
190 3 0 -52 -8 608. 907. 907. <
190 2 -8 52 0 608. 907. 907. <
190 1 8 52 0 608. 907. 907. <
191 3 0 -54 0 13779. 13610. 908. o
191 2 0 54 0 13779. 13610. 908. o
191 1 0 54 0 13779. 13610. 908. o
192 3 0 -54 -2 9691. 10434. 1814. o
192 2 -2 54 0 9691. 10434. 1814. o
192 1 2 54 0 9691. 10434. 1814. o
193 3 0 -54 2 9674. 11795. 1811. o
193 2 2 54 0 9674. 11795. 1811. o
193 1 -2 54 0 9674. 11795. 1811. o
194 3 0 -54 -4 2273. 2268. 1361. <
194 2 -4 54 0 2273. 2268. 1361. <
194 1 4 54 0 2273. 2268. 1361. <
195 3 0 -54 4 2290. 2722. 1361. <
195 2 4 54 0 2290. 2722. 1361. <
195 1 -4 54 0 2290. 2722. 1361. <
196 3 0 -54 -6 584. 0. 907. <
196 2 -6 54 0 584. 0. 907. <
196 1 6 54 0 584. 0. 907. <
197 3 0 -54 -8 238. 454. 907. <
197 2 -8 54 0 238. 454. 907. <
197 1 8 54 0 238. 454. 907. <
198 3 0 -56 0 8262. 9980. 903. o
198 2 0 56 0 8262. 9980. 903. o
198 1 0 56 0 8262. 9980. 903. o
199 3 0 -56 -2 3942. 4083. 1361. o
199 2 -2 56 0 3942. 4083. 1361. o
199 1 2 56 0 3942. 4083. 1361. o
200 3 0 -56 2 3945. 4990. 906. o
200 2 2 56 0 3945. 4990. 906. o
200 1 -2 56 0 3945. 4990. 906. o
201 3 0 -56 -4 1898. -1361. 1361. <
201 2 -4 56 0 1898. -1361. 1361. <
201 1 4 56 0 1898. -1361. 1361. <
202 3 0 -56 4 1889. 907. 1361. <
202 2 4 56 0 1889. 907. 1361. <
202 1 -4 56 0 1889. 907. 1361. <
203 3 0 -56 -6 278. 907. 907. <
203 2 -6 56 0 278. 907. 907. <
203 1 6 56 0 278. 907. 907. <
204 3 0 -56 -8 278. 3176. 905. o
204 2 -8 56 0 278. 3176. 905. o
204 1 8 56 0 278. 3176. 905. o
205 3 0 -58 0 221. 2722. 906. o
205 2 0 58 0 221. 2722. 906. o
205 1 0 58 0 221. 2722. 906. o
206 3 0 -58 -2 229. 1815. 1361. <
206 2 -2 58 0 229. 1815. 1361. <
206 1 2 58 0 229. 1815. 1361. <
207 3 0 -58 2 212. -907. 1361. <
207 2 2 58 0 212. -907. 1361. <
207 1 -2 58 0 212. -907. 1361. <
208 3 0 -58 -4 309. -1815. 1361. <
208 2 -4 58 0 309. -1815. 1361. <
208 1 4 58 0 309. -1815. 1361. <
209 3 0 -58 4 301. 454. 1361. <
209 2 4 58 0 301. 454. 1361. <
209 1 -4 58 0 301. 454. 1361. <
210 3 0 -58 -6 537. -1361. 907. <
210 2 -6 58 0 537. -1361. 907. <
210 1 6 58 0 537. -1361. 907. <
211 3 0 -58 -8 280. -454. 907. <
211 2 -8 58 0 280. -454. 907. <
211 1 8 58 0 280. -454. 907. <
212 3 0 -60 0 34669. 48995. 1231. o
212 2 0 60 0 34669. 48995. 1231. o
212 1 0 60 0 34669. 48995. 1231. o
213 3 0 -60 -2 26403. 24044. 1823. o
213 2 -2 60 0 26403. 24044. 1823. o
213 1 2 60 0 26403. 24044. 1823. o
214 3 0 -60 2 26375. 24497. 1370. o
214 2 2 60 0 26375. 24497. 1370. o
214 1 -2 60 0 26375. 24497. 1370. o
215 3 0 -60 -4 23371. 20868. 1823. o
215 2 -4 60 0 23371. 20868. 1823. o
215 1 4 60 0 23371. 20868. 1823. o
216 3 0 -60 4 23369. 25405. 1807. o
216 2 4 60 0 23369. 25405. 1807. o
216 1 -4 60 0 23369. 25405. 1807. o
217 3 0 -60 -6 9935. 5444. 916. o
217 2 -6 60 0 9935. 5444. 916. o
217 1 6 60 0 9935. 5444. 916. o
218 3 0 -60 -8 3675. 1361. 909. <
218 2 -8 60 0 3675. 1361. 909. <
218 1 8 60 0 3675. 1361. 909. <
219 3 0 -62 0 867. 1361. 907. <
219 2 0 62 0 867. 1361. 907. <
219 1 0 62 0 867. 1361. 907. <
220 3 0 -62 -2 1602. 1361. 907. <
220 2 -2 62 0 1602. 1361. 907. <
220 1 2 62 0 1602. 1361. 907. <
221 3 0 -62 2 1792. 1815. 907. <
221 2 2 62 0 1792. 1815. 907. <
221 1 -2 62 0 1792. 1815. 907. <
222 3 0 -62 -4 5624. 4990. 908. o
222 2 -4 62 0 5624. 4990. 908. o
222 1 4 62 0 5624. 4990. 908. o
223 3 0 -62 4 5758. 2722. 1363. <
223 2 4 62 0 5758. 2722. 1363. <
223 1 -4 62 0 5758. 2722. 1363. <
224 3 0 -62 -6 3809. 2722. 908. o
224 2 -6 62 0 3809. 2722. 908. o
224 1 6 62 0 3809. 2722. 908. o
225 3 0 -64 0 57. 454. 907. <
225 2 0 64 0 57. 454. 907. <
225 1 0 64 0 57. 454. 907. <
226 3 0 -64 -2 880. -907. 907. <
226 2 -2 64 0 880. -907. 907. <
226 1 2 64 0 880. -907. 907. <
227 3 0 -64 2 892. 907. 1361. <
227 2 2 64 0 892. 907. 1361. <
227 1 -2 64 0 892. 907. 1361. <
228 3 0 -64 -4 390. -907. 907. <
228 2 -4 64 0 390. -907. 907. <
228 1 4 64 0 390. -907. 907. <
229 3 0 -64 4 396. 454. 1361. <
229 2 4 64 0 396. 454. 1361. <
229 1 -4 64 0 396. 454. 1361. <
230 3 0 -64 -6 534. 907. 907. <
230 2 -6 64 0 534. 907. 907. <
230 1 6 64 0 534. 907. 907. <
231 3 0 -66 0 126. 2722. 906. o
231 2 0 66 0 126. 2722. 906. o
231 1 0 66 0 126. 2722. 906. o
232 3 0 -66 -2 420. 454. 907. <
232 2 -2 66 0 420. 454. 907. <
232 1 2 66 0 420. 454. 907. <
233 3 0 -66 2 414. 0. 907. <
233 2 2 66 0 414. 0. 907. <
233 1 -2 66 0 414. 0. 907. <
234 3 0 -66 -4 370. -454. 907. <
234 2 -4 66 0 370. -454. 907. <
234 1 4 66 0 370. -454. 907. <
235 3 0 -66 4 368. 454. 907. <
235 2 4 66 0 368. 454. 907. <
235 1 -4 66 0 368. 454. 907. <
236 3 0 -66 -6 240. 907. 907. <
236 2 -6 66 0 240. 907. 907. <
236 1 6 66 0 240. 907. 907. <
237 3 0 -68 0 13. -454. 907. <
237 2 0 68 0 13. -454. 907. <
237 1 0 68 0 13. -454. 907. <
238 3 0 -68 -2 6. 907. 907. <
238 2 -2 68 0 6. 907. 907. <
238 1 2 68 0 6. 907. 907. <
239 3 0 -68 2 6. 907. 907. <
239 2 2 68 0 6. 907. 907. <
239 1 -2 68 0 6. 907. 907. <
240 3 0 -68 -4 166. 907. 907. <
240 2 -4 68 0 166. 907. 907. <
240 1 4 68 0 166. 907. 907. <
241 3 0 -68 4 165. -454. 907. <
241 2 4 68 0 165. -454. 907. <
241 1 -4 68 0 165. -454. 907. <
242 3 0 -68 -6 56. -907. 907. <
242 2 -6 68 0 56. -907. 907. <
242 1 6 68 0 56. -907. 907. <
243 3 0 -70 0 2821. 4083. 906. o
243 2 0 70 0 2821. 4083. 906. o
243 1 0 70 0 2821. 4083. 906. o
244 3 0 -70 -2 2398. 1361. 908. <
244 2 -2 70 0 2398. 1361. 908. <
244 1 2 70 0 2398. 1361. 908. <
245 3 0 -70 2 2405. 2722. 907. o
245 2 2 70 0 2405. 2722. 907. o
245 1 -2 70 0 2405. 2722. 907. o
246 3 0 -70 -4 740. -907. 907. <
246 2 -4 70 0 740. -907. 907. <
246 1 4 70 0 740. -907. 907. <
247 3 0 -70 4 744. 1815. 907. <
247 2 4 70 0 744. 1815. 907. <
247 1 -4 70 0 744. 1815. 907. <
248 3 0 -70 -6 316. 1361. 907. <
248 2 -6 70 0 316. 1361. 907. <
248 1 6 70 0 316. 1361. 907. <
249 3 0 -72 0 43017. 68048. 1580. o
249 2 0 72 0 43017. 68048. 1580. o
249 1 0 72 0 43017. 68048. 1580. o
250 3 0 -72 -2 36209. 31756. 1390. o
250 2 -2 72 0 36209. 31756. 1390. o
250 1 2 72 0 36209. 31756. 1390. o
251 3 0 -72 2 36243. 38107. 1347. o
251 2 2 72 0 36243. 38107. 1347. o
251 1 -2 72 0 36243. 38107. 1347. o
252 3 0 -72 -4 16675. 9980. 1377. o
252 2 -4 72 0 16675. 9980. 1377. o
252 1 4 72 0 16675. 9980. 1377. o
253 3 0 -72 4 16686. 17693. 1358. o
253 2 4 72 0 16686. 17693. 1358. o
253 1 -4 72 0 16686. 17693. 1358. o
254 3 0 -72 -6 5496. 907. 911. <
254 2 -6 72 0 5496. 907. 911. <
254 1 6 72 0 5496. 907. 911. <
255 3 0 -74 0 63574. 82565. 2091. o
255 2 0 74 0 63574. 82565. 2091. o
255 1 0 74 0 63574. 82565. 2091. o
256 3 0 -74 -2 44901. 48995. 1322. o
256 2 -2 74 0 44901. 48995. 1322. o
256 1 2 74 0 44901. 48995. 1322. o
257 3 0 -74 2 44824. 57614. 1711. o
257 2 2 74 0 44824. 57614. 1711. o
257 1 -2 74 0 44824. 57614. 1711. o
258 3 0 -74 -4 15441. 9073. 928. o
258 2 -4 74 0 15441. 9073. 928. o
258 1 4 74 0 15441. 9073. 928. o
259 3 0 -74 4 15391. 18600. 1806. o
259 2 4 74 0 15391. 18600. 1806. o
259 1 -4 74 0 15391. 18600. 1806. o
260 3 0 -74 -6 3819. 4537. 906. o
260 2 -6 74 0 3819. 4537. 906. o
260 1 6 74 0 3819. 4537. 906. o
261 3 0 -76 0 387. -454. 907. <
261 2 0 76 0 387. -454. 907. <
261 1 0 76 0 387. -454. 907. <
262 3 0 -76 -2 668. 907. 907. <
262 2 -2 76 0 668. 907. 907. <
262 1 2 76 0 668. 907. 907. <
263 3 0 -76 2 665. 454. 907. <
263 2 2 76 0 665. 454. 907. <
263 1 -2 76 0 665. 454. 907. <
264 3 0 -76 -4 214. -454. 907. <
264 2 -4 76 0 214. -454. 907. <
264 1 4 76 0 214. -454. 907. <
265 3 0 -76 4 211. 907. 1361. <
265 2 4 76 0 211. 907. 1361. <
265 1 -4 76 0 211. 907. 1361. <
266 3 0 -76 -6 181. 0. 907. <
266 2 -6 76 0 181. 0. 907. <
266 1 6 76 0 181. 0. 907. <
267 3 0 -78 0 544. 0. 907. <
267 2 0 78 0 544. 0. 907. <
267 1 0 78 0 544. 0. 907. <
268 3 0 -78 -2 390. 1361. 453. o
268 2 -2 78 0 390. 1361. 453. o
268 1 2 78 0 390. 1361. 453. o
269 3 0 -78 2 392. 907. 907. <
269 2 2 78 0 392. 907. 907. <
269 1 -2 78 0 392. 907. 907. <
270 3 0 -78 -4 173. 2722. 906. o
270 2 -4 78 0 173. 2722. 906. o
270 1 4 78 0 173. 2722. 906. o
271 3 0 -78 4 175. 0. 907. <
271 2 4 78 0 175. 0. 907. <
271 1 -4 78 0 175. 0. 907. <
272 3 0 -80 0 161. 907. 453. <
272 2 0 80 0 161. 907. 453. <
272 1 0 80 0 161. 907. 453. <
273 3 0 -80 -2 65. -1361. 453. <
273 2 -2 80 0 65. -1361. 453. <
273 1 2 80 0 65. -1361. 453. <
274 3 0 -80 2 65. 0. 907. <
274 2 2 80 0 65. 0. 907. <
274 1 -2 80 0 65. 0. 907. <
275 3 0 -80 -4 84. 907. 907. <
275 2 -4 80 0 84. 907. 907. <
275 1 4 80 0 84. 907. 907. <
276 3 0 -80 4 85. -454. 907. <
276 2 4 80 0 85. -454. 907. <
276 1 -4 80 0 85. -454. 907. <
277 3 0 -82 0 200. 907. 907. <
277 2 0 82 0 200. 907. 907. <
277 1 0 82 0 200. 907. 907. <
278 3 0 -82 -2 266. -454. 454. <
278 2 -2 82 0 266. -454. 454. <
278 1 2 82 0 266. -454. 454. <
279 3 0 -82 2 263. -454. 907. <
279 2 2 82 0 263. -454. 907. <
279 1 -2 82 0 263. -454. 907. <
280 3 0 -82 -4 142. -454. 454. <
280 2 -4 82 0 142. -454. 454. <
280 1 4 82 0 142. -454. 454. <
281 3 0 -82 4 140. 907. 1361. <
281 2 4 82 0 140. 907. 1361. <
281 1 -4 82 0 140. 907. 1361. <
282 3 0 -84 0 3507. 4537. 906. o
282 2 0 84 0 3507. 4537. 906. o
282 1 0 84 0 3507. 4537. 906. o
283 3 0 -84 -2 3200. 6351. 902. o
283 2 -2 84 0 3200. 6351. 902. o
283 1 2 84 0 3200. 6351. 902. o
284 3 0 -84 2 3189. 4537. 906. o
284 2 2 84 0 3189. 4537. 906. o
284 1 -2 84 0 3189. 4537. 906. o
285 3 0 -84 -4 1674. 2722. 907. o
285 2 -4 84 0 1674. 2722. 907. o
285 1 4 84 0 1674. 2722. 907. o
286 3 0 -84 4 1668. 1815. 907. <
286 2 4 84 0 1668. 1815. 907. <
286 1 -4 84 0 1668. 1815. 907. <
287 3 0 -86 0 328. 454. 454. <
287 2 0 86 0 328. 454. 454. <
287 1 0 86 0 328. 454. 454. <
288 3 0 -86 -2 178. 454. 454. <
288 2 -2 86 0 178. 454. 454. <
288 1 2 86 0 178. 454. 454. <
289 3 0 -86 2 200. 0. 907. <
289 2 2 86 0 200. 0. 907. <
289 1 -2 86 0 200. 0. 907. <
290 3 0 -88 0 167. 907. 907. <
290 2 0 88 0 167. 907. 907. <
290 1 0 88 0 167. 907. 907. <
291 3 0 -88 -2 195. 1361. 453. o
291 2 -2 88 0 195. 1361. 453. o
291 1 2 88 0 195. 1361. 453. o
292 3 0 -88 2 196. 907. 453. <
292 2 2 88 0 196. 907. 453. <
292 1 -2 88 0 196. 907. 453. <
293 3 0 -90 0 42. 0. 907. <
293 2 0 90 0 42. 0. 907. <
293 1 0 90 0 42. 0. 907. <
294 3 0 -90 -2 40. -454. 454. <
294 2 -2 90 0 40. -454. 454. <
294 1 2 90 0 40. -454. 454. <
295 3 0 -90 2 39. 454. 907. <
295 2 2 90 0 39. 454. 907. <
295 1 -2 90 0 39. 454. 907. <
296 3 0 -92 0 4. 454. 454. <
296 2 0 92 0 4. 454. 454. <
296 1 0 92 0 4. 454. 454. <
297 3 1 -1 -9 12964. 19961. 870. o
297 2 -9 1 1 12964. 19961. 870. o
297 1 9 1 -1 12964. 19961. 870. o
298 3 -1 -1 7 113053. 102073. 3714. o
298 2 7 1 -1 113053. 102073. 3714. o
298 1 -7 1 1 113053. 102073. 3714. o
299 3 1 -1 -7 111901. 106609. 1897. o
299 2 -7 1 1 111901. 106609. 1897. o
299 1 7 1 -1 111901. 106609. 1897. o
300 3 -1 -1 5 330163. 272193. 7025. o
300 2 5 1 -1 330163. 272193. 7025. o
300 1 -5 1 1 330163. 272193. 7025. o
301 3 1 -1 -5 333320. 367461. 7258. o
301 2 -5 1 1 333320. 367461. 7258. o
301 1 5 1 -1 333320. 367461. 7258. o
302 3 -1 -1 3 1510420. 1669910. 31910. o
302 2 3 1 -1 1510420. 1669910. 31910. o
302 1 -3 1 1 1510420. 1669910. 31910. o
303 3 1 -1 -3 1508750. 1626810. 31701. o
303 2 -3 1 1 1508750. 1626810. 31701. o
303 1 3 1 -1 1508750. 1626810. 31701. o
304 3 -1 -1 -3 1510800. 1587800. 31132. o
304 2 -3 1 -1 1510800. 1587800. 31132. o
304 1 3 1 1 1510800. 1587800. 31132. o
305 3 -1 -1 -5 331059. 332076. 3147. o
305 2 -5 1 -1 331059. 332076. 3147. o
305 1 5 1 1 331059. 332076. 3147. o
306 3 -1 -1 -7 113030. 113414. 2718. o
306 2 -7 1 -1 113030. 113414. 2718. o
306 1 7 1 1 113030. 113414. 2718. o
307 3 -1 -1 -9 12488. 16785. 888. o
307 2 -9 1 -1 12488. 16785. 888. o
307 1 9 1 1 12488. 16785. 888. o
308 2 -10 2 1 46. 454. 454. <
308 1 10 2 -1 46. 454. 454. <
309 2 -8 2 1 297. 907. 453. <
309 1 8 2 -1 297. 907. 453. <
310 2 6 2 -1 1148. 2268. 3629. <
310 1 -6 2 1 1148. 2268. 3629. <
311 2 -6 2 1 1148. 907. 907. <
311 1 6 2 -1 1148. 907. 907. <
312 2 4 2 -1 1684. 907. 2722. <
312 1 -4 2 1 1684. 907. 2722. <
313 2 -4 2 1 1682. 1815. 907. <
313 1 4 2 -1 1682. 1815. 907. <
314 2 2 2 -1 1253. 454. 1361. <
314 1 -2 2 1 1253. 454. 1361. <
315 2 -2 2 1 1256. 907. 907. <
315 1 2 2 -1 1256. 907. 907. <
316 2 0 2 -1 1401. 907. 1361. <
316 1 0 2 1 1401. 907. 1361. <
317 2 0 2 1 1401. 1361. 1361. <
317 1 0 2 -1 1401. 1361. 1361. <
318 2 -2 2 -1 1256. 907. 1361. <
318 1 2 2 1 1256. 907. 1361. <
319 2 2 2 1 1253. 1361. 1815. <
319 1 -2 2 -1 1253. 1361. 1815. <
320 2 -4 2 -1 1682. 907. 2722. <
320 1 4 2 1 1682. 907. 2722. <
321 2 -6 2 -1 1148. 1361. 1361. <
321 1 6 2 1 1148. 1361. 1361. <
322 2 -8 2 -1 297. 454. 907. <
322 1 8 2 1 297. 454. 907. <
323 2 -10 2 -1 46. 0. 907. <
323 1 10 2 1 46. 0. 907. <
324 3 1 -3 -9 1434. 3176. 906. o
324 2 -9 3 1 1434. 3176. 906. o
324 1 9 3 -1 1434. 3176. 906. o
325 3 -1 -3 7 9790. 8166. 2270. o
325 2 7 3 -1 9790. 8166. 2270. o
325 1 -7 3 1 9790. 8166. 2270. o
326 3 1 -3 -7 9593. 13156. 895. o
326 2 -7 3 1 9593. 13156. 895. o
326 1 7 3 -1 9593. 13156. 895. o
327 3 -1 -3 5 24815. 21776. 4994. o
327 2 5 3 -1 24815. 21776. 4994. o
327 1 -5 3 1 24815. 21776. 4994. o
328 3 1 -3 -5 25144. 38561. 761. o
328 2 -5 3 1 25144. 38561. 761. o
328 1 5 3 -1 25144. 38561. 761. o
329 3 -1 -3 3 110688. 126116. 2037. o
329 2 3 3 -1 110688. 126116. 2037. o
329 1 -3 3 1 110688. 126116. 2037. o
330 3 1 -3 -3 110115. 101619. 1941. o
330 2 -3 3 1 110115. 101619. 1941. o
330 1 3 3 -1 110115. 101619. 1941. o
331 3 -1 -3 1 161552. 169214. 2113. o
331 2 1 3 -1 161552. 169214. 2113. o
331 1 -1 3 1 161552. 169214. 2113. o
332 3 1 -3 -1 161854. 149706. 2071. o
332 2 -1 3 1 161854. 149706. 2071. o
332 1 1 3 -1 161854. 149706. 2071. o
333 3 -1 -3 -1 161712. 170121. 2096. o
333 2 -1 3 -1 161712. 170121. 2096. o
333 1 1 3 1 161712. 170121. 2096. o
334 3 1 -3 1 161694. 178740. 1890. o
334 2 1 3 1 161694. 178740. 1890. o
334 1 -1 3 -1 161694. 178740. 1890. o
335 3 -1 -3 -3 110537. 100712. 1959. o
335 2 -3 3 -1 110537. 100712. 1959. o
335 1 3 3 1 110537. 100712. 1959. o
336 3 -1 -3 -5 24840. 39468. 2208. o
336 2 -5 3 -1 24840. 39468. 2208. o
336 1 5 3 1 24840. 39468. 2208. o
337 3 -1 -3 -7 9792. 7712. 1364. o
337 2 -7 3 -1 9792. 7712. 1364. o
337 1 7 3 1 9792. 7712. 1364. o
338 3 -1 -3 -9 1352. 3176. 906. o
338 2 -9 3 -1 1352. 3176. 906. o
338 1 9 3 1 1352. 3176. 906. o
339 2 -10 4 1 30. 907. 453. <
339 1 10 4 -1 30. 907. 453. <
340 2 -8 4 1 132. 907. 907. <
340 1 8 4 -1 132. 907. 907. <
341 2 6 4 -1 513. -907. 3629. <
341 1 -6 4 1 513. -907. 3629. <
342 2 -6 4 1 512. 2722. 906. o
342 1 6 4 -1 512. 2722. 906. o
343 2 4 4 -1 211. 4537. 2721. <
343 1 -4 4 1 211. 4537. 2721. <
344 2 -4 4 1 213. 4537. 903. o
344 1 4 4 -1 213. 4537. 903. o
345 2 2 4 -1 2267. 5898. 1358. o
345 1 -2 4 1 2267. 5898. 1358. o
346 2 -2 4 1 2270. 8619. 1353. o
346 1 2 4 -1 2270. 8619. 1353. o
347 2 0 4 -1 4256. 2722. 1362. <
347 1 0 4 1 4256. 2722. 1362. <
348 2 0 4 1 4256. 2722. 1362. <
348 1 0 4 -1 4256. 2722. 1362. <
349 2 -2 4 -1 2270. 2722. 1361. <
349 1 2 4 1 2270. 2722. 1361. <
350 2 2 4 1 2267. 2268. 1815. <
350 1 -2 4 -1 2267. 2268. 1815. <
351 2 -4 4 -1 213. 3629. 2721. <
351 1 4 4 1 213. 3629. 2721. <
352 2 -6 4 -1 512. 2268. 906. o
352 1 6 4 1 512. 2268. 906. o
353 2 -8 4 -1 132. 454. 454. <
353 1 8 4 1 132. 454. 454. <
354 2 -10 4 -1 30. 454. 454. <
354 1 10 4 1 30. 454. 454. <
355 3 1 -5 -9 298. 1361. 453. o
355 2 -9 5 1 298. 1361. 453. o
355 1 9 5 -1 298. 1361. 453. o
356 3 -1 -5 7 1594. 5444. 2266. o
356 2 7 5 -1 1594. 5444. 2266. o
356 1 -7 5 1 1594. 5444. 2266. o
357 3 1 -5 -7 1568. 2722. 907. o
357 2 -7 5 1 1568. 2722. 907. o
357 1 7 5 -1 1568. 2722. 907. o
358 3 -1 -5 5 1680. 2722. 4990. <
358 2 5 5 -1 1680. 2722. 4990. <
358 1 -5 5 1 1680. 2722. 4990. <
359 3 1 -5 -5 1691. 1815. 907. <
359 2 -5 5 1 1691. 1815. 907. <
359 1 5 5 -1 1691. 1815. 907. <
360 3 -1 -5 3 8931. 7712. 1363. o
360 2 3 5 -1 8931. 7712. 1363. o
360 1 -3 5 1 8931. 7712. 1363. o
361 3 1 -5 -3 8890. 8166. 909. o
361 2 -3 5 1 8890. 8166. 909. o
361 1 3 5 -1 8890. 8166. 909. o
362 3 -1 -5 1 16448. 17239. 1358. o
362 2 1 5 -1 16448. 17239. 1358. o
362 1 -1 5 1 16448. 17239. 1358. o
363 3 1 -5 -1 16239. 18600. 1353. o
363 2 -1 5 1 16239. 18600. 1353. o
363 1 1 5 -1 16239. 18600. 1353. o
364 3 -1 -5 -1 16337. 16785. 1360. o
364 2 -1 5 -1 16337. 16785. 1360. o
364 1 1 5 1 16337. 16785. 1360. o
365 3 1 -5 1 16349. 19054. 1351. o
365 2 1 5 1 16349. 19054. 1351. o
365 1 -1 5 -1 16349. 19054. 1351. o
366 3 -1 -5 -3 8925. 8619. 908. o
366 2 -3 5 -1 8925. 8619. 908. o
366 1 3 5 1 8925. 8619. 908. o
367 3 -1 -5 -5 1699. 3176. 1814. <
367 2 -5 5 -1 1699. 3176. 1814. <
367 1 5 5 1 1699. 3176. 1814. <
368 3 -1 -5 -7 1585. 3176. 906. o
368 2 -7 5 -1 1585. 3176. 906. o
368 1 7 5 1 1585. 3176. 906. o
369 3 -1 -5 -9 296. 907. 453. <
369 2 -9 5 -1 296. 907. 453. <
369 1 9 5 1 296. 907. 453. <
370 2 -10 6 1 46. 454. 454. <
370 1 10 6 -1 46. 454. 454. <
371 2 8 6 -1 299. 1361. 1814. <
371 1 -8 6 1 299. 1361. 1814. <
372 2 -8 6 1 299. 1815. 907. <
372 1 8 6 -1 299. 1815. 907. <
373 2 6 6 -1 5844. 5898. 3629. <
373 1 -6 6 1 5844. 5898. 3629. <
374 2 -6 6 1 5845. 6805. 1360. o
374 1 6 6 -1 5845. 6805. 1360. o
375 2 4 6 -1 1608. 6805. 2719. o
375 1 -4 6 1 1608. 6805. 2719. o
376 2 -4 6 1 1607. 5444. 903. o
376 1 4 6 -1 1607. 5444. 903. o
377 2 2 6 -1 190958. 185545. 2385. o
377 1 -2 6 1 190958. 185545. 2385. o
378 2 -2 6 1 190924. 155150. 2546. o
378 1 2 6 -1 190924. 155150. 2546. o
379 2 0 6 -1 2691. 1815. 1361. <
379 1 0 6 1 2691. 1815. 1361. <
380 2 0 6 1 2691. 1815. 1361. <
380 1 0 6 -1 2691. 1815. 1361. <
381 2 -2 6 -1 190924. 185999. 2374. o
381 1 2 6 1 190924. 185999. 2374. o
382 2 2 6 1 190958. 202784. 2481. o
382 1 -2 6 -1 190958. 202784. 2481. o
383 2 -4 6 -1 1607. 6351. 2720. o
383 1 4 6 1 1607. 6351. 2720. o
384 2 -6 6 -1 5845. 9073. 1356. o
384 1 6 6 1 5845. 9073. 1356. o
385 2 -8 6 -1 299. 1361. 907. <
385 1 8 6 1 299. 1361. 907. <
386 2 -10 6 -1 46. 0. 454. <
386 1 10 6 1 46. 0. 454. <
387 3 1 -7 -9 383. 907. 907. <
387 2 -9 7 1 383. 907. 907. <
387 1 9 7 -1 383. 907. 907. <
388 3 -1 -7 7 2305. 2268. 2268. <
388 2 7 7 -1 2305. 2268. 2268. <
388 1 -7 7 1 2305. 2268. 2268. <
389 3 1 -7 -7 2282. 2722. 907. o
389 2 -7 7 1 2282. 2722. 907. o
389 1 7 7 -1 2282. 2722. 907. o
390 3 -1 -7 5 2482. 2722. 4990. <
390 2 5 7 -1 2482. 2722. 4990. <
390 1 -5 7 1 2482. 2722. 4990. <
391 3 1 -7 -5 2544. 907. 908. <
391 2 -5 7 1 2544. 907. 908. <
391 1 5 7 -1 2544. 907. 908. <
392 3 -1 -7 3 2116. 454. 1361. <
392 2 3 7 -1 2116. 454. 1361. <
392 1 -3 7 1 2116. 454. 1361. <
393 3 1 -7 -3 2019. 907. 908. <
393 2 -3 7 1 2019. 907. 908. <
393 1 3 7 -1 2019. 907. 908. <
394 3 -1 -7 1 1740. 907. 908. <
394 2 1 7 -1 1740. 907. 908. <
394 1 -1 7 1 1740. 907. 908. <
395 3 1 -7 -1 1819. 1361. 1361. <
395 2 -1 7 1 1819. 1361. 1361. <
395 1 1 7 -1 1819. 1361. 1361. <
396 3 -1 -7 -1 1782. 907. 1361. <
396 2 -1 7 -1 1782. 907. 1361. <
396 1 1 7 1 1782. 907. 1361. <
397 3 1 -7 1 1778. 1361. 1361. <
397 2 1 7 1 1778. 1361. 1361. <
397 1 -1 7 -1 1778. 1361. 1361. <
398 3 -1 -7 -3 2053. 0. 1361. <
398 2 -3 7 -1 2053. 0. 1361. <
398 1 3 7 1 2053. 0. 1361. <
399 3 1 -7 3 2083. 0. 2722. <
399 2 3 7 1 2083. 0. 2722. <
399 1 -3 7 -1 2083. 0. 2722. <
400 3 -1 -7 -5 2476. 3176. 1814. <
400 2 -5 7 -1 2476. 3176. 1814. <
400 1 5 7 1 2476. 3176. 1814. <
401 3 -1 -7 -7 2300. 1361. 908. <
401 2 -7 7 -1 2300. 1361. 908. <
401 1 7 7 1 2300. 1361. 908. <
402 3 -1 -7 -9 366. 907. 453. <
402 2 -9 7 -1 366. 907. 453. <
402 1 9 7 1 366. 907. 453. <
403 2 -10 8 1 117. 454. 454. <
403 1 10 8 -1 117. 454. 454. <
404 2 8 8 -1 641. 907. 1815. <
404 1 -8 8 1 641. 907. 1815. <
405 2 -8 8 1 642. 0. 907. <
405 1 8 8 -1 642. 0. 907. <
406 2 6 8 -1 3044. 4083. 3175. <
406 1 -6 8 1 3044. 4083. 3175. <
407 2 -6 8 1 3037. 3629. 1361. o
407 1 6 8 -1 3037. 3629. 1361. o
408 2 4 8 -1 2542. 2722. 2268. <
408 1 -4 8 1 2542. 2722. 2268. <
409 2 -4 8 1 2549. 6351. 902. o
409 1 4 8 -1 2549. 6351. 902. o
410 2 2 8 -1 10159. 6805. 1366. o
410 1 -2 8 1 10159. 6805. 1366. o
411 2 -2 8 1 10162. 5444. 1367. o
411 1 2 8 -1 10162. 5444. 1367. o
412 2 0 8 -1 513. 454. 1361. <
412 1 0 8 1 513. 454. 1361. <
413 2 0 8 1 513. 454. 1361. <
413 1 0 8 -1 513. 454. 1361. <
414 2 -2 8 -1 10162. 6805. 1366. o
414 1 2 8 1 10162. 6805. 1366. o
415 2 2 8 1 10159. 10434. 1814. o
415 1 -2 8 -1 10159. 10434. 1814. o
416 2 -4 8 -1 2549. 5444. 3174. <
416 1 4 8 1 2549. 5444. 3174. <
417 2 -6 8 -1 3037. 2268. 908. o
417 1 6 8 1 3037. 2268. 908. o
418 2 -8 8 -1 642. 1815. 907. <
418 1 8 8 1 642. 1815. 907. <
419 2 -10 8 -1 117. 454. 454. <
419 1 10 8 1 117. 454. 454. <
420 3 1 -9 -9 1561. 1815. 907. <
420 2 -9 9 1 1561. 1815. 907. <
420 1 9 9 -1 1561. 1815. 907. <
421 3 -1 -9 7 8342. 4990. 1818. o
421 2 7 9 -1 8342. 4990. 1818. o
421 1 -7 9 1 8342. 4990. 1818. o
422 3 1 -9 -7 8130. 9073. 905. o
422 2 -7 9 1 8130. 9073. 905. o
422 1 7 9 -1 8130. 9073. 905. o
423 3 -1 -9 5 10278. 13610. 4988. o
423 2 5 9 -1 10278. 13610. 4988. o
423 1 -5 9 1 10278. 13610. 4988. o
424 3 1 -9 -5 10640. 12702. 1356. o
424 2 -5 9 1 10640. 12702. 1356. o
424 1 5 9 -1 10640. 12702. 1356. o
425 3 -1 -9 3 22343. 23590. 2265. o
425 2 3 9 -1 22343. 23590. 2265. o
425 1 -3 9 1 22343. 23590. 2265. o
426 3 1 -9 -3 21590. 17239. 1377. o
426 2 -3 9 1 21590. 17239. 1377. o
426 1 3 9 -1 21590. 17239. 1377. o
427 3 -1 -9 1 33711. 36292. 1343. o
427 2 1 9 -1 33711. 36292. 1343. o
427 1 -1 9 1 33711. 36292. 1343. o
428 3 1 -9 -1 33758. 36746. 1340. o
428 2 -1 9 1 33758. 36746. 1340. o
428 1 1 9 -1 33758. 36746. 1340. o
429 3 -1 -9 -1 33736. 34932. 1353. o
429 2 -1 9 -1 33736. 34932. 1353. o
429 1 1 9 1 33736. 34932. 1353. o
430 3 1 -9 1 33733. 39014. 1785. o
430 2 1 9 1 33733. 39014. 1785. o
430 1 -1 9 -1 33733. 39014. 1785. o
431 3 -1 -9 -3 22052. 20868. 2271. o
431 2 -3 9 -1 22052. 20868. 2271. o
431 1 3 9 1 22052. 20868. 2271. o
432 3 1 -9 3 21880. 24497. 2716. o
432 2 3 9 1 21880. 24497. 2716. o
432 1 -3 9 -1 21880. 24497. 2716. o
433 3 -1 -9 -5 10267. 12249. 1811. o
433 2 -5 9 -1 10267. 12249. 1811. o
433 1 5 9 1 10267. 12249. 1811. o
434 3 -1 -9 -7 8338. 7712. 909. o
434 2 -7 9 -1 8338. 7712. 909. o
434 1 7 9 1 8338. 7712. 909. o
435 3 -1 -9 -9 1471. 2722. 906. o
435 2 -9 9 -1 1471. 2722. 906. o
435 1 9 9 1 1471. 2722. 906. o
436 2 -10 10 1 173. 454. 454. <
436 1 10 10 -1 173. 454. 454. <
437 2 8 10 -1 772. -1361. 2722. <
437 1 -8 10 1 772. -1361. 2722. <
438 2 -8 10 1 772. 454. 907. <
438 1 8 10 -1 772. 454. 907. <
439 2 6 10 -1 2467. 907. 2722. <
439 1 -6 10 1 2467. 907. 2722. <
440 2 -6 10 1 2468. 2268. 907. o
440 1 6 10 -1 2468. 2268. 907. o
441 2 4 10 -1 3148. 2268. 2269. <
441 1 -4 10 1 3148. 2268. 2269. <
442 2 -4 10 1 3145. 2722. 908. o
442 1 4 10 -1 3145. 2722. 908. o
443 2 2 10 -1 15805. 14517. 1817. o
443 1 -2 10 1 15805. 14517. 1817. o
444 2 -2 10 1 15814. 13156. 1368. o
444 1 2 10 -1 15814. 13156. 1368. o
445 2 0 10 -1 1533. 1815. 1361. <
445 1 0 10 1 1533. 1815. 1361. <
446 2 0 10 1 1533. 1361. 1361. <
446 1 0 10 -1 1533. 1361. 1361. <
447 2 -2 10 -1 15814. 11341. 1823. o
447 1 2 10 1 15814. 11341. 1823. o
448 2 2 10 1 15805. 13610. 2272. o
448 1 -2 10 -1 15805. 13610. 2272. o
449 2 -4 10 -1 3145. 454. 2722. <
449 1 4 10 1 3145. 454. 2722. <
450 2 -6 10 -1 2468. 454. 908. <
450 1 6 10 1 2468. 454. 908. <
451 2 -8 10 -1 772. 907. 907. <
451 1 8 10 1 772. 907. 907. <
452 2 -10 10 -1 173. 0. 907. <
452 1 10 10 1 173. 0. 907. <
453 3 1 -11 -9 10286. 15878. 884. o
453 2 -9 11 1 10286. 15878. 884. o
453 1 9 11 -1 10286. 15878. 884. o
454 3 -1 -11 7 66878. 39468. 4169. o
454 2 7 11 -1 66878. 39468. 4169. o
454 1 -7 11 1 66878. 39468. 4169. o
455 3 1 -11 -7 65976. 90278. 1493. o
455 2 -7 11 1 65976. 90278. 1493. o
455 1 7 11 -1 65976. 90278. 1493. o
456 3 1 -11 -5 102669. 108877. 2189. o
456 2 -5 11 1 102669. 108877. 2189. o
456 1 5 11 -1 102669. 108877. 2189. o
457 3 -1 -11 3 289640. 286257. 4593. o
457 2 3 11 -1 289640. 286257. 4593. o
457 1 -3 11 1 289640. 286257. 4593. o
458 3 1 -11 -3 287285. 209135. 4459. o
458 2 -3 11 1 287285. 209135. 4459. o
458 1 3 11 -1 287285. 209135. 4459. o
459 3 -1 -11 1 300964. 327539. 1701. o
459 2 1 11 -1 300964. 327539. 1701. o
459 1 -1 11 1 300964. 327539. 1701. o
460 3 1 -11 -1 303235. 315291. 2325. o
460 2 -1 11 1 303235. 315291. 2325. o
460 1 1 11 -1 303235. 315291. 2325. o
461 3 -1 -11 -1 302165. 298959. 2815. o
461 2 -1 11 -1 302165. 298959. 2815. o
461 1 1 11 1 302165. 298959. 2815. o
462 3 1 -11 1 302034. 286257. 3140. o
462 2 1 11 1 302034. 286257. 3140. o
462 1 -1 11 -1 302034. 286257. 3140. o
463 3 -1 -11 -3 289004. 230911. 4574. o
463 2 -3 11 -1 289004. 230911. 4574. o
463 1 3 11 1 289004. 230911. 4574. o
464 3 -1 -11 -5 101601. 101165. 1821. o
464 2 -5 11 -1 101601. 101165. 1821. o
464 1 5 11 1 101601. 101165. 1821. o
465 3 -1 -11 -7 66739. 69863. 2243. o
465 2 -7 11 -1 66739. 69863. 2243. o
465 1 7 11 1 66739. 69863. 2243. o
466 3 -1 -11 -9 10020. 15424. 885. o
466 2 -9 11 -1 10020. 15424. 885. o
466 1 9 11 1 10020. 15424. 885. o
467 2 -10 12 1 42. 907. 907. <
467 1 10 12 -1 42. 907. 907. <
468 2 8 12 -1 182. 5444. 2266. o
468 1 -8 12 1 182. 5444. 2266. o
469 2 -8 12 1 182. 907. 907. <
469 1 8 12 -1 182. 907. 907. <
470 2 6 12 -1 845. -454. 2722. <
470 1 -6 12 1 845. -454. 2722. <
471 2 -6 12 1 845. 1815. 907. <
471 1 6 12 -1 845. 1815. 907. <
472 2 4 12 -1 3934. 4537. 2722. <
472 1 -4 12 1 3934. 4537. 2722. <
473 2 -4 12 1 3932. 3176. 908. o
473 1 4 12 -1 3932. 3176. 908. o
474 2 2 12 -1 16970. 15424. 1366. o
474 1 -2 12 1 16970. 15424. 1366. o
475 2 -2 12 1 16990. 14063. 1370. o
475 1 2 12 -1 16990. 14063. 1370. o
476 2 0 12 -1 1223. 1815. 1361. <
476 1 0 12 1 1223. 1815. 1361. <
477 2 0 12 1 1223. 1361. 1361. <
477 1 0 12 -1 1223. 1361. 1361. <
478 2 -2 12 -1 16990. 11795. 1825. o
478 1 2 12 1 16990. 11795. 1825. o
479 2 2 12 1 16970. 14517. 1820. o
479 1 -2 12 -1 16970. 14517. 1820. o
480 2 -4 12 -1 3932. 2722. 2722. <
480 1 4 12 1 3932. 2722. 2722. <
481 2 -6 12 -1 845. 2268. 907. o
481 1 6 12 1 845. 2268. 907. o
482 2 -8 12 -1 182. 454. 907. <
482 1 8 12 1 182. 454. 907. <
483 2 -10 12 -1 42. 454. 907. <
483 1 10 12 1 42. 454. 907. <
484 3 1 -13 -9 13584. 16785. 892. o
484 2 -9 13 1 13584. 16785. 892. o
484 1 9 13 -1 13584. 16785. 892. o
485 3 -1 -13 7 87414. 49902. 4672. o
485 2 7 13 -1 87414. 49902. 4672. o
485 1 -7 13 1 87414. 49902. 4672. o
486 3 1 -13 -7 85968. 110692. 1394. o
486 2 -7 13 1 85968. 110692. 1394. o
486 1 7 13 -1 85968. 110692. 1394. o
487 3 1 -13 -5 121867. 122487. 2714. o
487 2 -5 13 1 121867. 122487. 2714. o
487 1 5 13 -1 121867. 122487. 2714. o
488 3 -1 -13 3 314188. 259945. 4971. o
488 2 3 13 -1 314188. 259945. 4971. o
488 1 -3 13 1 314188. 259945. 4971. o
489 3 1 -13 -3 308354. 278998. 3454. o
489 2 -3 13 1 308354. 278998. 3454. o
489 1 3 13 -1 308354. 278998. 3454. o
490 3 -1 -13 1 191259. 200062. 2054. o
490 2 1 13 -1 191259. 200062. 2054. o
490 1 -1 13 1 191259. 200062. 2054. o
491 3 1 -13 -1 190079. 207774. 1800. o
491 2 -1 13 1 190079. 207774. 1800. o
491 1 1 13 -1 190079. 207774. 1800. o
492 3 -1 -13 -1 190635. 192350. 2229. o
492 2 -1 13 -1 190635. 192350. 2229. o
492 1 1 13 1 190635. 192350. 2229. o
493 3 1 -13 1 190703. 177833. 2529. o
493 2 1 13 1 190703. 177833. 2529. o
493 1 -1 13 -1 190703. 177833. 2529. o
494 3 -1 -13 -3 311294. 301227. 3007. o
494 2 -3 13 -1 311294. 301227. 3007. o
494 1 3 13 1 311294. 301227. 3007. o
495 3 -1 -13 -5 119902. 138365. 1960. o
495 2 -5 13 -1 119902. 138365. 1960. o
495 1 5 13 1 119902. 138365. 1960. o
496 3 -1 -13 -7 87191. 105702. 2040. o
496 2 -7 13 -1 87191. 105702. 2040. o
496 1 7 13 1 87191. 105702. 2040. o
497 3 -1 -13 -9 13076. 23136. 847. o
497 2 -9 13 -1 13076. 23136. 847. o
497 1 9 13 1 13076. 23136. 847. o
498 2 -10 14 1 35. 454. 454. <
498 1 10 14 -1 35. 454. 454. <
499 2 8 14 -1 168. 0. 2268. <
499 1 -8 14 1 168. 0. 2268. <
500 2 -8 14 1 168. 454. 907. <
500 1 8 14 -1 168. 454. 907. <
501 2 6 14 -1 546. 1815. 2722. <
501 1 -6 14 1 546. 1815. 2722. <
502 2 -6 14 1 546. 907. 907. <
502 1 6 14 -1 546. 907. 907. <
503 2 4 14 -1 2834. 4083. 2721. <
503 1 -4 14 1 2834. 4083. 2721. <
504 2 -4 14 1 2832. 1361. 908. <
504 1 4 14 -1 2832. 1361. 908. <
505 2 2 14 -1 10565. 10434. 1361. o
505 1 -2 14 1 10565. 10434. 1361. o
506 2 -2 14 1 10583. 12702. 1356. o
506 1 2 14 -1 10583. 12702. 1356. o
507 2 0 14 -1 13. 907. 1361. <
507 1 0 14 1 13. 907. 1361. <
508 2 0 14 1 13. 907. 1361. <
508 1 0 14 -1 13. 907. 1361. <
509 2 -2 14 -1 10583. 11795. 1358. o
509 1 2 14 1 10583. 11795. 1358. o
510 2 2 14 1 10565. 10434. 1815. o
510 1 -2 14 -1 10565. 10434. 1815. o
511 2 -4 14 -1 2832. 4537. 3629. <
511 1 4 14 1 2832. 4537. 3629. <
512 2 -6 14 -1 546. 1361. 907. <
512 1 6 14 1 546. 1361. 907. <
513 2 -8 14 -1 168. 454. 907. <
513 1 8 14 1 168. 454. 907. <
514 2 -10 14 -1 35. 454. 907. <
514 1 10 14 1 35. 454. 907. <
515 3 1 -15 -9 1337. 1361. 907. <
515 2 -9 15 1 1337. 1361. 907. <
515 1 9 15 -1 1337. 1361. 907. <
516 3 -1 -15 7 6504. 4990. 3176. <
516 2 7 15 -1 6504. 4990. 3176. <
516 1 -7 15 1 6504. 4990. 3176. <
517 3 1 -15 -7 6401. 8166. 1358. o
517 2 -7 15 1 6401. 8166. 1358. o
517 1 7 15 -1 6401. 8166. 1358. o
518 3 -1 -15 5 7374. 6805. 4537. <
518 2 5 15 -1 7374. 6805. 4537. <
518 1 -5 15 1 7374. 6805. 4537. <
519 3 1 -15 -5 7531. 5898. 910. o
519 2 -5 15 1 7531. 5898. 910. o
519 1 5 15 -1 7531. 5898. 910. o
520 3 -1 -15 3 6819. 1361. 1817. <
520 2 3 15 -1 6819. 1361. 1817. <
520 1 -3 15 1 6819. 1361. 1817. <
521 3 1 -15 -3 6621. 2722. 912. o
521 2 -3 15 1 6621. 2722. 912. o
521 1 3 15 -1 6621. 2722. 912. o
522 3 -1 -15 1 676. 454. 1361. <
522 2 1 15 -1 676. 454. 1361. <
522 1 -1 15 1 676. 454. 1361. <
523 3 1 -15 -1 839. 907. 1815. <
523 2 -1 15 1 839. 907. 1815. <
523 1 1 15 -1 839. 907. 1815. <
524 3 -1 -15 -1 762. 0. 1361. <
524 2 -1 15 -1 762. 0. 1361. <
524 1 1 15 1 762. 0. 1361. <
525 3 1 -15 1 753. 907. 1361. <
525 2 1 15 1 753. 907. 1361. <
525 1 -1 15 -1 753. 907. 1361. <
526 3 -1 -15 -3 6746. 2268. 1817. <
526 2 -3 15 -1 6746. 2268. 1817. <
526 1 3 15 1 6746. 2268. 1817. <
527 3 1 -15 3 6694. 907. 2270. <
527 2 3 15 1 6694. 907. 2270. <
527 1 -3 15 -1 6694. 907. 2270. <
528 3 -1 -15 -5 7355. 6805. 1815. o
528 2 -5 15 -1 7355. 6805. 1815. o
528 1 5 15 1 7355. 6805. 1815. o
529 3 -1 -15 -7 6495. 6351. 908. o
529 2 -7 15 -1 6495. 6351. 908. o
529 1 7 15 1 6495. 6351. 908. o
530 3 -1 -15 -9 1299. 1815. 907. <
530 2 -9 15 -1 1299. 1815. 907. <
530 1 9 15 1 1299. 1815. 907. <
531 2 -10 16 1 113. 907. 453. <
531 1 10 16 -1 113. 907. 453. <
532 2 8 16 -1 368. 2722. 2268. <
532 1 -8 16 1 368. 2722. 2268. <
533 2 -8 16 1 368. 907. 907. <
533 1 8 16 -1 368. 907. 907. <
534 2 6 16 -1 1102. 907. 2268. <
534 1 -6 16 1 1102. 907. 2268. <
535 2 -6 16 1 1102. 454. 1361. <
535 1 6 16 -1 1102. 454. 1361. <
536 2 4 16 -1 3738. 2268. 4990. <
536 1 -4 16 1 3738. 2268. 4990. <
537 2 -4 16 1 3740. 454. 1362. <
537 1 4 16 -1 3740. 454. 1362. <
538 2 2 16 -1 2040. 2268. 1361. <
538 1 -2 16 1 2040. 2268. 1361. <
539 2 -2 16 1 2049. 2268. 1361. <
539 1 2 16 -1 2049. 2268. 1361. <
540 2 0 16 -1 10790. 15878. 1347. o
540 1 0 16 1 10790. 15878. 1347. o
541 2 0 16 1 10790. 15878. 1804. o
541 1 0 16 -1 10790. 15878. 1804. o
542 2 -2 16 -1 2049. 2268. 1361. <
542 1 2 16 1 2049. 2268. 1361. <
543 2 2 16 1 2040. 1361. 1815. <
543 1 -2 16 -1 2040. 1361. 1815. <
544 2 -4 16 -1 3740. 2268. 3630. <
544 1 4 16 1 3740. 2268. 3630. <
545 2 -6 16 -1 1102. 907. 907. <
545 1 6 16 1 1102. 907. 907. <
546 2 -8 16 -1 368. 907. 907. <
546 1 8 16 1 368. 907. 907. <
547 2 -10 16 -1 113. 907. 907. <
547 1 10 16 1 113. 907. 907. <
548 3 1 -17 -9 299. 1361. 907. <
548 2 -9 17 1 299. 1361. 907. <
548 1 9 17 -1 299. 1361. 907. <
549 3 -1 -17 7 1120. 1361. 2722. <
549 2 7 17 -1 1120. 1361. 2722. <
549 1 -7 17 1 1120. 1361. 2722. <
550 3 1 -17 -7 1128. 1815. 907. <
550 2 -7 17 1 1128. 1815. 907. <
550 1 7 17 -1 1128. 1815. 907. <
551 3 -1 -17 5 1703. 6805. 5896. <
551 2 5 17 -1 1703. 6805. 5896. <
551 1 -5 17 1 1703. 6805. 5896. <
552 3 1 -17 -5 1722. 907. 908. <
552 2 -5 17 1 1722. 907. 908. <
552 1 5 17 -1 1722. 907. 908. <
553 3 -1 -17 3 3044. 454. 1362. <
553 2 3 17 -1 3044. 454. 1362. <
553 1 -3 17 1 3044. 454. 1362. <
554 3 1 -17 -3 3033. 1361. 908. <
554 2 -3 17 1 3033. 1361. 908. <
554 1 3 17 -1 3033. 1361. 908. <
555 3 -1 -17 1 14956. 14517. 1362. o
555 2 1 17 -1 14956. 14517. 1362. o
555 1 -1 17 1 14956. 14517. 1362. o
556 3 1 -17 -1 14907. 14063. 1816. o
556 2 -1 17 1 14907. 14063. 1816. o
556 1 1 17 -1 14907. 14063. 1816. o
557 3 -1 -17 -1 14930. 15878. 1812. o
557 2 -1 17 -1 14930. 15878. 1812. o
557 1 1 17 1 14930. 15878. 1812. o
558 3 1 -17 1 14933. 13610. 913. o
558 2 1 17 1 14933. 13610. 913. o
558 1 -1 17 -1 14933. 13610. 913. o
559 3 -1 -17 -3 3028. 907. 1815. <
559 2 -3 17 -1 3028. 907. 1815. <
559 1 3 17 1 3028. 907. 1815. <
560 3 1 -17 3 3049. 1361. 2269. <
560 2 3 17 1 3049. 1361. 2269. <
560 1 -3 17 -1 3049. 1361. 2269. <
561 3 -1 -17 -5 1718. 1361. 1361. <
561 2 -5 17 -1 1718. 1361. 1361. <
561 1 5 17 1 1718. 1361. 1361. <
562 3 -1 -17 -7 1119. 454. 907. <
562 2 -7 17 -1 1119. 454. 907. <
562 1 7 17 1 1119. 454. 907. <
563 3 -1 -17 -9 298. 907. 907. <
563 2 -9 17 -1 298. 907. 907. <
563 1 9 17 1 298. 907. 907. <
564 2 -10 18 1 223. -454. 907. <
564 1 10 18 -1 223. -454. 907. <
565 2 8 18 -1 2550. 1815. 2268. <
565 1 -8 18 1 2550. 1815. 2268. <
566 2 -8 18 1 2549. 3176. 907. o
566 1 8 18 -1 2549. 3176. 907. o
567 2 6 18 -1 12105. 8166. 3179. o
567 1 -6 18 1 12105. 8166. 3179. o
568 2 -6 18 1 12108. 13610. 1812. o
568 1 6 18 -1 12108. 13610. 1812. o
569 2 4 18 -1 121060. 135189. 6732. o
569 1 -4 18 1 121060. 135189. 6732. o
570 2 -4 18 1 121056. 92092. 2997. o
570 1 4 18 -1 121056. 92092. 2997. o
571 2 2 18 -1 81582. 55346. 2458. o
571 1 -2 18 1 81582. 55346. 2458. o
572 2 -2 18 1 81557. 87556. 1738. o
572 1 2 18 -1 81557. 87556. 1738. o
573 2 0 18 -1 705801. 732200. 2547. o
573 1 0 18 1 705801. 732200. 2547. o
574 2 0 18 1 705801. 727664. 2184. o
574 1 0 18 -1 705801. 727664. 2184. o
575 2 -2 18 -1 81557. 83926. 1785. o
575 1 2 18 1 81557. 83926. 1785. o
576 2 2 18 1 81582. 62151. 2420. o
576 1 -2 18 -1 81582. 62151. 2420. o
577 2 -4 18 -1 121056. 80297. 3900. o
577 1 4 18 1 121056. 80297. 3900. o
578 2 -6 18 -1 12108. 18600. 1340. o
578 1 6 18 1 12108. 18600. 1340. o
579 2 -8 18 -1 2549. 2722. 907. o
579 1 8 18 1 2549. 2722. 907. o
580 2 -10 18 -1 223. 0. 907. <
580 1 10 18 1 223. 0. 907. <
581 3 1 -19 -9 296. 454. 907. <
581 2 -9 19 1 296. 454. 907. <
581 1 9 19 -1 296. 454. 907. <
582 3 -1 -19 7 1728. 3629. 2721. <
582 2 7 19 -1 1728. 3629. 2721. <
582 1 -7 19 1 1728. 3629. 2721. <
583 3 1 -19 -7 1685. 907. 908. <
583 2 -7 19 1 1685. 907. 908. <
583 1 7 19 -1 1685. 907. 908. <
584 3 -1 -19 5 2611. 907. 5898. <
584 2 5 19 -1 2611. 907. 5898. <
584 1 -5 19 1 2611. 907. 5898. <
585 3 1 -19 -5 2665. 2722. 907. o
585 2 -5 19 1 2665. 2722. 907. o
585 1 5 19 -1 2665. 2722. 907. o
586 3 -1 -19 3 14444. 15878. 1811. o
586 2 3 19 -1 14444. 15878. 1811. o
586 1 -3 19 1 14444. 15878. 1811. o
587 3 1 -19 -3 14533. 16332. 1355. o
587 2 -3 19 1 14533. 16332. 1355. o
587 1 3 19 -1 14533. 16332. 1355. o
588 3 -1 -19 1 57732. 58522. 1808. o
588 2 1 19 -1 57732. 58522. 1808. o
588 1 -1 19 1 57732. 58522. 1808. o
589 3 1 -19 -1 58193. 60790. 1792. o
589 2 -1 19 1 58193. 60790. 1792. o
589 1 1 19 -1 58193. 60790. 1792. o
590 3 -1 -19 -1 57976. 53985. 1847. o
590 2 -1 19 -1 57976. 53985. 1847. o
590 1 1 19 1 57976. 53985. 1847. o
591 3 1 -19 1 57949. 47634. 1890. o
591 2 1 19 1 57949. 47634. 1890. o
591 1 -1 19 -1 57949. 47634. 1890. o
592 3 -1 -19 -3 14572. 17693. 1807. o
592 2 -3 19 -1 14572. 17693. 1807. o
592 1 3 19 1 14572. 17693. 1807. o
593 3 1 -19 3 14405. 17693. 2262. o
593 2 3 19 1 14405. 17693. 2262. o
593 1 -3 19 -1 14405. 17693. 2262. o
594 3 -1 -19 -5 2631. 2268. 1361. <
594 2 -5 19 -1 2631. 2268. 1361. <
594 1 5 19 1 2631. 2268. 1361. <
595 3 -1 -19 -7 1723. 2268. 907. o
595 2 -7 19 -1 1723. 2268. 907. o
595 1 7 19 1 1723. 2268. 907. o
596 3 -1 -19 -9 283. 0. 907. <
596 2 -9 19 -1 283. 0. 907. <
596 1 9 19 1 283. 0. 907. <
597 2 -10 20 1 244. -907. 907. <
597 1 10 20 -1 244. -907. 907. <
598 2 8 20 -1 1763. 1815. 2722. <
598 1 -8 20 1 1763. 1815. 2722. <
599 2 -8 20 1 1765. 2268. 907. o
599 1 8 20 -1 1765. 2268. 907. o
600 2 6 20 -1 4919. 5898. 2721. o
600 1 -6 20 1 4919. 5898. 2721. o
601 2 -6 20 1 4911. 4083. 1815. o
601 1 6 20 -1 4911. 4083. 1815. o
602 2 4 20 -1 25548. 14517. 5001. o
602 1 -4 20 1 25548. 14517. 5001. o
603 2 -4 20 1 25568. 15878. 2290. o
603 1 4 20 -1 25568. 15878. 2290. o
604 2 2 20 -1 17454. 15424. 1819. o
604 1 -2 20 1 17454. 15424. 1819. o
605 2 -2 20 1 17459. 20868. 1348. o
605 1 2 20 -1 17459. 20868. 1348. o
606 2 0 20 -1 64685. 60790. 1850. o
606 1 0 20 1 64685. 60790. 1850. o
607 2 0 20 1 64685. 61697. 1842. o
607 1 0 20 -1 64685. 61697. 1842. o
608 2 -2 20 -1 17459. 14971. 1820. o
608 1 2 20 1 17459. 14971. 1820. o
609 2 2 20 1 17454. 12702. 1825. o
609 1 -2 20 -1 17454. 12702. 1825. o
610 2 -6 20 -1 4911. 1815. 1816. <
610 1 6 20 1 4911. 1815. 1816. <
611 2 -8 20 -1 1765. 2722. 907. o
611 1 8 20 1 1765. 2722. 907. o
612 2 -10 20 -1 244. 907. 907. <
612 1 10 20 1 244. 907. 907. <
613 3 1 -21 -9 1304. 0. 1361. <
613 2 -9 21 1 1304. 0. 1361. <
613 1 9 21 -1 1304. 0. 1361. <
614 3 -1 -21 7 7587. 4083. 2270. <
614 2 7 21 -1 7587. 4083. 2270. <
614 1 -7 21 1 7587. 4083. 2270. <
615 3 1 -21 -7 7457. 5444. 1363. o
615 2 -7 21 1 7457. 5444. 1363. o
615 1 7 21 -1 7457. 5444. 1363. o
616 3 -1 -21 5 23157. 14517. 4998. o
616 2 5 21 -1 23157. 14517. 4998. o
616 1 -5 21 1 23157. 14517. 4998. o
617 3 1 -21 -5 23438. 16785. 1833. o
617 2 -5 21 1 23438. 16785. 1833. o
617 1 5 21 -1 23438. 16785. 1833. o
618 3 -1 -21 3 92445. 85741. 2779. o
618 2 3 21 -1 92445. 85741. 2779. o
618 1 -3 21 1 92445. 85741. 2779. o
619 3 1 -21 -3 92400. 102526. 2147. o
619 2 -3 21 1 92400. 102526. 2147. o
619 1 3 21 -1 92400. 102526. 2147. o
620 3 -1 -21 1 190284. 190989. 2252. o
620 2 1 21 -1 190284. 190989. 2252. o
620 1 -1 21 1 190284. 190989. 2252. o
621 3 1 -21 -1 191214. 205960. 2414. o
621 2 -1 21 1 191214. 205960. 2414. o
621 1 1 21 -1 191214. 205960. 2414. o
622 3 -1 -21 -1 190775. 195526. 1674. o
622 2 -1 21 -1 190775. 195526. 1674. o
622 1 1 21 1 190775. 195526. 1674. o
623 3 1 -21 1 190722. 189174. 3200. o
623 2 1 21 1 190722. 189174. 3200. o
623 1 -1 21 -1 190722. 189174. 3200. o
624 3 -1 -21 -3 92642. 95268. 2698. o
624 2 -3 21 -1 92642. 95268. 2698. o
624 1 3 21 1 92642. 95268. 2698. o
625 3 1 -21 3 92203. 80751. 3256. o
625 2 3 21 1 92203. 80751. 3256. o
625 1 -3 21 -1 92203. 80751. 3256. o
626 3 -1 -21 -5 23210. 14517. 2286. o
626 2 -5 21 -1 23210. 14517. 2286. o
626 1 5 21 1 23210. 14517. 2286. o
627 3 -1 -21 -7 7591. 2722. 1818. <
627 2 -7 21 -1 7591. 2722. 1818. <
627 1 7 21 1 7591. 2722. 1818. <
628 3 -1 -21 -9 1245. 1815. 907. <
628 2 -9 21 -1 1245. 1815. 907. <
628 1 9 21 1 1245. 1815. 907. <
629 2 -10 22 1 257. 907. 907. <
629 1 10 22 -1 257. 907. 907. <
630 2 8 22 -1 1251. 1815. 2268. <
630 1 -8 22 1 1251. 1815. 2268. <
631 2 -8 22 1 1251. 907. 1361. <
631 1 8 22 -1 1251. 907. 1361. <
632 2 6 22 -1 3203. 0. 2722. <
632 1 -6 22 1 3203. 0. 2722. <
633 2 -6 22 1 3203. 1815. 1362. <
633 1 6 22 -1 3203. 1815. 1362. <
634 2 4 22 -1 13039. 9980. 4992. <
634 1 -4 22 1 13039. 9980. 4992. <
635 2 -4 22 1 13032. 10888. 1818. o
635 1 4 22 -1 13032. 10888. 1818. o
636 2 2 22 -1 15710. 13610. 1367. o
636 1 -2 22 1 15710. 13610. 1367. o
637 2 -2 22 1 15727. 16785. 1812. o
637 1 2 22 -1 15727. 16785. 1812. o
638 2 0 22 -1 47336. 47180. 1816. o
638 1 0 22 1 47336. 47180. 1816. o
639 2 0 22 1 47336. 48995. 1803. o
639 1 0 22 -1 47336. 48995. 1803. o
640 2 -2 22 -1 15727. 16785. 1812. o
640 1 2 22 1 15727. 16785. 1812. o
641 2 2 22 1 15710. 10434. 1374. o
641 1 -2 22 -1 15710. 10434. 1374. o
642 2 -4 22 -1 13032. 13610. 3175. o
642 1 4 22 1 13032. 13610. 3175. o
643 2 -6 22 -1 3203. -454. 1815. <
643 1 6 22 1 3203. -454. 1815. <
644 2 -8 22 -1 1251. 2722. 906. o
644 1 8 22 1 1251. 2722. 906. o
645 2 -10 22 -1 257. 454. 907. <
645 1 10 22 1 257. 454. 907. <
646 3 1 -23 -9 7291. 8619. 1359. o
646 2 -9 23 1 7291. 8619. 1359. o
646 1 9 23 -1 7291. 8619. 1359. o
647 3 -1 -23 7 50329. 52170. 3168. o
647 2 7 23 -1 50329. 52170. 3168. o
647 1 -7 23 1 50329. 52170. 3168. o
648 3 1 -23 -7 50138. 69409. 2600. o
648 2 -7 23 1 50138. 69409. 2600. o
648 1 7 23 -1 50138. 69409. 2600. o
649 3 1 -23 -5 151158. 145624. 3689. o
649 2 -5 23 1 151158. 145624. 3689. o
649 1 5 23 -1 151158. 145624. 3689. o
650 3 -1 -23 3 543784. 481782. 6443. o
650 2 3 23 -1 543784. 481782. 6443. o
650 1 -3 23 1 543784. 481782. 6443. o
651 3 1 -23 -3 542586. 548470. 6215. o
651 2 -3 23 1 542586. 548470. 6215. o
651 1 3 23 -1 542586. 548470. 6215. o
652 3 -1 -23 1 910528. 890980. 5472. o
652 2 1 23 -1 910528. 890980. 5472. o
652 1 -1 23 1 910528. 890980. 5472. o
653 3 1 -23 -1 910326. 924550. 4234. o
653 2 -1 23 1 910326. 924550. 4234. o
653 1 1 23 -1 910326. 924550. 4234. o
654 3 -1 -23 -1 910420. 933170. 2332. o
654 2 -1 23 -1 910420. 933170. 2332. o
654 1 1 23 1 910420. 933170. 2332. o
655 3 1 -23 1 910432. 910487. 6349. o
655 2 1 23 1 910432. 910487. 6349. o
655 1 -1 23 -1 910432. 910487. 6349. o
656 3 -1 -23 -3 543277. 525333. 7601. o
656 2 -3 23 -1 543277. 525333. 7601. o
656 1 3 23 1 543277. 525333. 7601. o
657 3 1 -23 3 543093. 347047. 9135. o
657 2 3 23 1 543093. 347047. 9135. o
657 1 -3 23 -1 543093. 347047. 9135. o
658 3 -1 -23 -5 150572. 122033. 3477. o
658 2 -5 23 -1 150572. 122033. 3477. o
658 1 5 23 1 150572. 122033. 3477. o
659 3 -1 -23 -7 50313. 50809. 2265. o
659 2 -7 23 -1 50313. 50809. 2265. o
659 1 7 23 1 50313. 50809. 2265. o
660 3 -1 -23 -9 7179. 8166. 1359. o
660 2 -9 23 -1 7179. 8166. 1359. o
660 1 9 23 1 7179. 8166. 1359. o
661 2 -10 24 1 81. 454. 907. <
661 1 10 24 -1 81. 454. 907. <
662 2 8 24 -1 326. 3629. 2267. <
662 1 -8 24 1 326. 3629. 2267. <
663 2 -8 24 1 326. -454. 1361. <
663 1 8 24 -1 326. -454. 1361. <
664 2 6 24 -1 1391. 3629. 2268. <
664 1 -6 24 1 1391. 3629. 2268. <
665 2 -6 24 1 1392. 0. 1361. <
665 1 6 24 -1 1392. 0. 1361. <
666 2 4 24 -1 6878. 3629. 4537. <
666 1 -4 24 1 6878. 3629. 4537. <
667 2 -4 24 1 6875. 8166. 1813. o
667 1 4 24 -1 6875. 8166. 1813. o
668 2 2 24 -1 6197. 6351. 1361. o
668 1 -2 24 1 6197. 6351. 1361. o
669 2 -2 24 1 6208. 7258. 1814. o
669 1 2 24 -1 6208. 7258. 1814. o
670 2 0 24 -1 29972. 30395. 1813. o
670 1 0 24 1 29972. 30395. 1813. o
671 2 0 24 1 29972. 29488. 2270. o
671 1 0 24 -1 29972. 29488. 2270. o
672 2 -2 24 -1 6208. 8619. 1812. o
672 1 2 24 1 6208. 8619. 1812. o
673 2 2 24 1 6197. 6351. 1814. o
673 1 -2 24 -1 6197. 6351. 1814. o
674 2 -4 24 -1 6875. 9073. 2720. o
674 1 4 24 1 6875. 9073. 2720. o
675 2 -6 24 -1 1392. 3629. 1360. o
675 1 6 24 1 1392. 3629. 1360. o
676 2 -8 24 -1 326. 1361. 1361. <
676 1 8 24 1 326. 1361. 1361. <
677 2 -10 24 -1 81. 0. 907. <
677 1 10 24 1 81. 0. 907. <
678 3 1 -25 -9 11082. 15424. 1349. o
678 2 -9 25 1 11082. 15424. 1349. o
678 1 9 25 -1 11082. 15424. 1349. o
679 3 -1 -25 7 83711. 58068. 3753. o
679 2 7 25 -1 83711. 58068. 3753. o
679 1 -7 25 1 83711. 58068. 3753. o
680 3 1 -25 -7 82903. 86195. 2694. o
680 2 -7 25 1 82903. 86195. 2694. o
680 1 7 25 -1 82903. 86195. 2694. o
681 3 1 -25 -5 294648. 245428. 5240. o
681 2 -5 25 1 294648. 245428. 5240. o
681 1 5 25 -1 294648. 245428. 5240. o
682 3 -1 -25 3 1309880. 1400890. 9138. o
682 2 3 25 -1 1309880. 1400890. 9138. o
682 1 -3 25 1 1309880. 1400890. 9138. o
683 3 1 -25 -3 1310380. 1525190. 29707. o
683 2 -3 25 1 1310380. 1525190. 29707. o
683 1 3 25 -1 1310380. 1525190. 29707. o
684 3 -1 -25 1 2577960. 2798600. 54426. o
684 2 1 25 -1 2577960. 2798600. 54426. o
684 1 -1 25 1 2577960. 2798600. 54426. o
685 3 1 -25 -1 2582310. 2654790. 52697. o
685 2 -1 25 1 2582310. 2654790. 52697. o
685 1 1 25 -1 2582310. 2654790. 52697. o
686 3 -1 -25 -1 2580260. 2726920. 53022. o
686 2 -1 25 -1 2580260. 2726920. 53022. o
686 1 1 25 1 2580260. 2726920. 53022. o
687 3 -1 -25 -3 1311150. 1429470. 7170. o
687 2 -3 25 -1 1311150. 1429470. 7170. o
687 1 3 25 1 1311150. 1429470. 7170. o
688 3 -1 -25 -5 293124. 273554. 4012. o
688 2 -5 25 -1 293124. 273554. 4012. o
688 1 5 25 1 293124. 273554. 4012. o
689 3 -1 -25 -7 83734. 67141. 2838. o
689 2 -7 25 -1 83734. 67141. 2838. o
689 1 7 25 1 83734. 67141. 2838. o
690 3 -1 -25 -9 10758. 16332. 1345. o
690 2 -9 25 -1 10758. 16332. 1345. o
690 1 9 25 1 10758. 16332. 1345. o
691 2 -10 26 1 49. 454. 907. <
691 1 10 26 -1 49. 454. 907. <
692 2 8 26 -1 90. -907. 1815. <
692 1 -8 26 1 90. -907. 1815. <
693 2 -8 26 1 90. 907. 1361. <
693 1 8 26 -1 90. 907. 1361. <
694 2 6 26 -1 160. -3176. 2267. <
694 1 -6 26 1 160. -3176. 2267. <
695 2 -6 26 1 161. -1815. 1814. <
695 1 6 26 -1 161. -1815. 1814. <
696 2 4 26 -1 1382. 3629. 4990. <
696 1 -4 26 1 1382. 3629. 4990. <
697 2 -4 26 1 1379. 1361. 1815. <
697 1 4 26 -1 1379. 1361. 1815. <
698 2 2 26 -1 208. 907. 907. <
698 1 -2 26 1 208. 907. 907. <
699 2 -2 26 1 210. 907. 1815. <
699 1 2 26 -1 210. 907. 1815. <
700 2 0 26 -1 10152. 10434. 1360. o
700 1 0 26 1 10152. 10434. 1360. o
701 2 0 26 1 10152. 10888. 2267. o
701 1 0 26 -1 10152. 10888. 2267. o
702 2 -2 26 -1 210. 1361. 1814. <
702 1 2 26 1 210. 1361. 1814. <
703 2 2 26 1 208. 454. 1361. <
703 1 -2 26 -1 208. 454. 1361. <
704 2 -4 26 -1 1379. 6351. 2720. o
704 1 4 26 1 1379. 6351. 2720. o
705 2 -6 26 -1 161. 454. 1815. <
705 1 6 26 1 161. 454. 1815. <
706 2 -8 26 -1 90. 1361. 1361. <
706 1 8 26 1 90. 1361. 1361. <
707 2 -10 26 -1 49. 454. 907. <
707 1 10 26 1 49. 454. 907. <
708 3 1 -27 -9 1044. 454. 1361. <
708 2 -9 27 1 1044. 454. 1361. <
708 1 9 27 -1 1044. 454. 1361. <
709 3 -1 -27 7 4428. 5444. 2268. o
709 2 7 27 -1 4428. 5444. 2268. o
709 1 -7 27 1 4428. 5444. 2268. o
710 3 1 -27 -7 4423. 2722. 1815. <
710 2 -7 27 1 4423. 2722. 1815. <
710 1 7 27 -1 4423. 2722. 1815. <
711 3 -1 -27 5 6973. -3176. 3629. <
711 2 5 27 -1 6973. -3176. 3629. <
711 1 -5 27 1 6973. -3176. 3629. <
712 3 1 -27 -5 7036. -907. 2270. <
712 2 -5 27 1 7036. -907. 2270. <
712 1 5 27 -1 7036. -907. 2270. <
713 3 -1 -27 3 17078. 4537. 2733. <
713 2 3 27 -1 17078. 4537. 2733. <
713 1 -3 27 1 17078. 4537. 2733. <
714 3 1 -27 -3 17065. 3629. 2281. <
714 2 -3 27 1 17065. 3629. 2281. <
714 1 3 27 -1 17065. 3629. 2281. <
715 3 -1 -27 1 45070. 50356. 3610. o
715 2 1 27 -1 45070. 50356. 3610. o
715 1 -1 27 1 45070. 50356. 3610. o
716 3 1 -27 -1 45030. 41736. 3640. o
716 2 -1 27 1 45030. 41736. 3640. o
716 1 1 27 -1 45030. 41736. 3640. o
717 3 -1 -27 -1 45049. 48541. 1790. o
717 2 -1 27 -1 45049. 48541. 1790. o
717 1 1 27 1 45049. 48541. 1790. o
718 3 1 -27 1 45051. 48541. 2706. o
718 2 1 27 1 45051. 48541. 2706. o
718 1 -1 27 -1 45051. 48541. 2706. o
719 3 -1 -27 -3 17098. 2722. 3637. <
719 2 -3 27 -1 17098. 2722. 3637. <
719 1 3 27 1 17098. 2722. 3637. <
720 3 1 -27 3 17044. 5898. 2281. o
720 2 3 27 1 17044. 5898. 2281. o
720 1 -3 27 -1 17044. 5898. 2281. o
721 3 -1 -27 -5 7003. -1815. 2269. <
721 2 -5 27 -1 7003. -1815. 2269. <
721 1 5 27 1 7003. -1815. 2269. <
722 3 -1 -27 -7 4438. 0. 1816. <
722 2 -7 27 -1 4438. 0. 1816. <
722 1 7 27 1 4438. 0. 1816. <
723 3 -1 -27 -9 1034. 1361. 907. <
723 2 -9 27 -1 1034. 1361. 907. <
723 1 9 27 1 1034. 1361. 907. <
724 2 -10 28 1 141. 2268. 1360. <
724 1 10 28 -1 141. 2268. 1360. <
725 2 8 28 -1 381. 3629. 1813. <
725 1 -8 28 1 381. 3629. 1813. <
726 2 -8 28 1 381. -907. 1361. <
726 1 8 28 -1 381. -907. 1361. <
727 2 6 28 -1 1930. -454. 2268. <
727 1 -6 28 1 1930. -454. 2268. <
728 2 -6 28 1 1929. -454. 1815. <
728 1 6 28 -1 1929. -454. 1815. <
729 2 4 28 -1 805. -454. 2268. <
729 1 -4 28 1 805. -454. 2268. <
730 2 -4 28 1 806. -454. 2268. <
730 1 4 28 -1 806. -454. 2268. <
731 2 2 28 -1 9344. 9073. 1815. o
731 1 -2 28 1 9344. 9073. 1815. o
732 2 -2 28 1 9331. 14063. 3625. o
732 1 2 28 -1 9331. 14063. 3625. o
733 2 0 28 -1 133. 454. 1361. <
733 1 0 28 1 133. 454. 1361. <
734 2 0 28 1 133. 1361. 2268. <
734 1 0 28 -1 133. 1361. 2268. <
735 2 -2 28 -1 9331. 9980. 1814. o
735 1 2 28 1 9331. 9980. 1814. o
736 2 2 28 1 9344. 9073. 1815. o
736 1 -2 28 -1 9344. 9073. 1815. o
737 2 -4 28 -1 806. 0. 2722. <
737 1 4 28 1 806. 0. 2722. <
738 2 -6 28 -1 1929. 907. 1815. <
738 1 6 28 1 1929. 907. 1815. <
739 2 -8 28 -1 381. 0. 1361. <
739 1 8 28 1 381. 0. 1361. <
740 2 -10 28 -1 141. 1361. 907. <
740 1 10 28 1 141. 1361. 907. <
741 3 1 -29 -9 281. 0. 1361. <
741 2 -9 29 1 281. 0. 1361. <
741 1 9 29 -1 281. 0. 1361. <
742 3 -1 -29 7 984. 907. 1815. <
742 2 7 29 -1 984. 907. 1815. <
742 1 -7 29 1 984. 907. 1815. <
743 3 1 -29 -7 974. 2722. 1360. <
743 2 -7 29 1 974. 2722. 1360. <
743 1 7 29 -1 974. 2722. 1360. <
744 3 -1 -29 5 1022. 907. 3176. <
744 2 5 29 -1 1022. 907. 3176. <
744 1 -5 29 1 1022. 907. 3176. <
745 3 1 -29 -5 1024. -1361. 2268. <
745 2 -5 29 1 1024. -1361. 2268. <
745 1 5 29 -1 1024. -1361. 2268. <
746 3 -1 -29 3 60. -907. 2268. <
746 2 3 29 -1 60. -907. 2268. <
746 1 -3 29 1 60. -907. 2268. <
747 3 1 -29 -3 52. -2722. 3175. <
747 2 -3 29 1 52. -2722. 3175. <
747 1 3 29 -1 52. -2722. 3175. <
748 3 -1 -29 1 4203. 5898. 1813. o
748 2 1 29 -1 4203. 5898. 1813. o
748 1 -1 29 1 4203. 5898. 1813. o
749 3 1 -29 -1 4254. 4537. 2268. <
749 2 -1 29 1 4254. 4537. 2268. <
749 1 1 29 -1 4254. 4537. 2268. <
750 3 -1 -29 -1 4230. 4990. 1814. o
750 2 -1 29 -1 4230. 4990. 1814. o
750 1 1 29 1 4230. 4990. 1814. o
751 3 1 -29 1 4227. 4537. 1361. o
751 2 1 29 1 4227. 4537. 1361. o
751 1 -1 29 -1 4227. 4537. 1361. o
752 3 -1 -29 -3 59. 1361. 4083. <
752 2 -3 29 -1 59. 1361. 4083. <
752 1 3 29 1 59. 1361. 4083. <
753 3 1 -29 3 52. 1815. 1814. <
753 2 3 29 1 52. 1815. 1814. <
753 1 -3 29 -1 52. 1815. 1814. <
754 3 -1 -29 -5 1021. 0. 1815. <
754 2 -5 29 -1 1021. 0. 1815. <
754 1 5 29 1 1021. 0. 1815. <
755 3 -1 -29 -7 979. 3629. 1360. o
755 2 -7 29 -1 979. 3629. 1360. o
755 1 7 29 1 979. 3629. 1360. o
756 3 -1 -29 -9 281. 454. 907. <
756 2 -9 29 -1 281. 454. 907. <
756 1 9 29 1 281. 454. 907. <
757 2 -10 30 1 251. -454. 1361. <
757 1 10 30 -1 251. -454. 1361. <
758 2 8 30 -1 2038. 1361. 1815. <
758 1 -8 30 1 2038. 1361. 1815. <
759 2 -8 30 1 2037. 1361. 1361. <
759 1 8 30 -1 2037. 1361. 1361. <
760 2 -6 30 1 19327. 15424. 2276. o
760 1 6 30 -1 19327. 15424. 2276. o
761 2 4 30 -1 44619. 38561. 3196. o
761 1 -4 30 1 44619. 38561. 3196. o
762 2 2 30 -1 301584. 325271. 4071. o
762 1 -2 30 1 301584. 325271. 4071. o
763 2 0 30 -1 127838. 148799. 1887. o
763 1 0 30 1 127838. 148799. 1887. o
764 2 0 30 1 127838. 142902. 3473. o
764 1 0 30 -1 127838. 142902. 3473. o
765 2 -2 30 -1 301564. 319374. 7981. o
765 1 2 30 1 301564. 319374. 7981. o
766 2 2 30 1 301584. 287164. 3926. o
766 1 -2 30 -1 301584. 287164. 3926. o
767 2 -4 30 -1 44611. 56253. 2662. o
767 1 4 30 1 44611. 56253. 2662. o
768 2 -6 30 -1 19327. 12702. 2732. o
768 1 6 30 1 19327. 12702. 2732. o
769 2 -8 30 -1 2037. 907. 1361. <
769 1 8 30 1 2037. 907. 1361. <
770 2 -10 30 -1 251. 0. 907. <
770 1 10 30 1 251. 0. 907. <
771 3 1 -31 -9 275. 2722. 1360. <
771 2 -9 31 1 275. 2722. 1360. <
771 1 9 31 -1 275. 2722. 1360. <
772 3 -1 -31 7 1303. -454. 1815. <
772 2 7 31 -1 1303. -454. 1815. <
772 1 -7 31 1 1303. -454. 1815. <
773 3 1 -31 -7 1293. 454. 1815. <
773 2 -7 31 1 1293. 454. 1815. <
773 1 7 31 -1 1293. 454. 1815. <
774 3 -1 -31 5 2434. 454. 2722. <
774 2 5 31 -1 2434. 454. 2722. <
774 1 -5 31 1 2434. 454. 2722. <
775 3 1 -31 -5 2448. 5444. 2267. o
775 2 -5 31 1 2448. 5444. 2267. o
775 1 5 31 -1 2448. 5444. 2267. o
776 3 -1 -31 3 4343. 2268. 1816. <
776 2 3 31 -1 4343. 2268. 1816. <
776 1 -3 31 1 4343. 2268. 1816. <
777 3 1 -31 -3 4273. 1361. 3630. <
777 2 -3 31 1 4273. 1361. 3630. <
777 1 3 31 -1 4273. 1361. 3630. <
778 3 -1 -31 1 2817. 2722. 1361. <
778 2 1 31 -1 2817. 2722. 1361. <
778 1 -1 31 1 2817. 2722. 1361. <
779 3 1 -31 -1 2757. 1815. 3176. <
779 2 -1 31 1 2757. 1815. 3176. <
779 1 1 31 -1 2757. 1815. 3176. <
780 3 -1 -31 -1 2785. 2722. 1815. <
780 2 -1 31 -1 2785. 2722. 1815. <
780 1 1 31 1 2785. 2722. 1815. <
781 3 1 -31 1 2789. 2722. 1815. <
781 2 1 31 1 2789. 2722. 1815. <
781 1 -1 31 -1 2789. 2722. 1815. <
782 3 -1 -31 -3 4307. 2722. 3176. <
782 2 -3 31 -1 4307. 2722. 3176. <
782 1 3 31 1 4307. 2722. 3176. <
783 3 1 -31 3 4310. 1361. 1362. <
783 2 3 31 1 4310. 1361. 1362. <
783 1 -3 31 -1 4310. 1361. 1362. <
784 3 -1 -31 -5 2434. 2722. 1815. <
784 2 -5 31 -1 2434. 2722. 1815. <
784 1 5 31 1 2434. 2722. 1815. <
785 3 -1 -31 -7 1301. 2268. 1361. <
785 2 -7 31 -1 1301. 2268. 1361. <
785 1 7 31 1 1301. 2268. 1361. <
786 3 -1 -31 -9 269. 2722. 1360. <
786 2 -9 31 -1 269. 2722. 1360. <
786 1 9 31 1 269. 2722. 1360. <
787 2 8 32 -1 1350. 1815. 1815. <
787 1 -8 32 1 1350. 1815. 1815. <
788 2 -8 32 1 1352. 2268. 1814. <
788 1 8 32 -1 1352. 2268. 1814. <
789 2 -6 32 1 7880. 4537. 2270. <
789 1 6 32 -1 7880. 4537. 2270. <
790 2 4 32 -1 13974. 17239. 2717. o
790 1 -4 32 1 13974. 17239. 2717. o
791 2 2 32 -1 78015. 99351. 3006. o
791 1 -2 32 1 78015. 99351. 3006. o
792 2 0 32 -1 21410. 34024. 2224. o
792 1 0 32 1 21410. 34024. 2224. o
793 2 0 32 1 21410. 34024. 2685. o
793 1 0 32 -1 21410. 34024. 2685. o
794 2 -2 32 -1 78003. 91185. 6303. o
794 1 2 32 1 78003. 91185. 6303. o
795 2 2 32 1 78015. 79390. 2711. o
795 1 -2 32 -1 78015. 79390. 2711. o
796 2 -4 32 -1 13987. 11341. 2272. o
796 1 4 32 1 13987. 11341. 2272. o
797 2 -6 32 -1 7880. 14971. 2713. o
797 1 6 32 1 7880. 14971. 2713. o
798 2 -8 32 -1 1352. 2722. 1360. <
798 1 8 32 1 1352. 2722. 1360. <
799 3 1 -33 -9 943. -1815. 1360. <
799 2 -9 33 1 943. -1815. 1360. <
799 1 9 33 -1 943. -1815. 1360. <
800 3 -1 -33 7 3870. 0. 1815. <
800 2 7 33 -1 3870. 0. 1815. <
800 1 -7 33 1 3870. 0. 1815. <
801 3 1 -33 -7 3817. 1361. 1815. <
801 2 -7 33 1 3817. 1361. 1815. <
801 1 7 33 -1 3817. 1361. 1815. <
802 3 -1 -33 5 9724. 3176. 1820. <
802 2 5 33 -1 9724. 3176. 1820. <
802 1 -5 33 1 9724. 3176. 1820. <
803 3 1 -33 -5 9816. 4083. 2725. <
803 2 -5 33 1 9816. 4083. 2725. <
803 1 5 33 -1 9816. 4083. 2725. <
804 3 -1 -33 3 23677. 21776. 3179. o
804 2 3 33 -1 23677. 21776. 3179. o
804 1 -3 33 1 23677. 21776. 3179. o
805 3 1 -33 -3 23579. 28580. 4074. o
805 2 -3 33 1 23579. 28580. 4074. o
805 1 3 33 -1 23579. 28580. 4074. o
806 3 -1 -33 1 33144. 38107. 1788. o
806 2 1 33 -1 33144. 38107. 1788. o
806 1 -1 33 1 33144. 38107. 1788. o
807 3 1 -33 -1 33310. 34478. 4080. o
807 2 -1 33 1 33310. 34478. 4080. o
807 1 1 33 -1 33310. 34478. 4080. o
808 3 -1 -33 -1 33232. 34932. 2261. o
808 2 -1 33 -1 33232. 34932. 2261. o
808 1 1 33 1 33232. 34932. 2261. o
809 3 1 -33 1 33222. 30849. 1826. o
809 2 1 33 1 33222. 30849. 1826. o
809 1 -1 33 -1 33222. 30849. 1826. o
810 3 -1 -33 -3 23684. 25405. 3172. o
810 2 -3 33 -1 23684. 25405. 3172. o
810 1 3 33 1 23684. 25405. 3172. o
811 3 1 -33 3 23571. 18146. 1830. o
811 2 3 33 1 23571. 18146. 1830. o
811 1 -3 33 -1 23571. 18146. 1830. o
812 3 -1 -33 -5 9735. 8619. 1816. o
812 2 -5 33 -1 9735. 8619. 1816. o
812 1 5 33 1 9735. 8619. 1816. o
813 3 -1 -33 -7 3872. 2268. 1362. <
813 2 -7 33 -1 3872. 2268. 1362. <
813 1 7 33 1 3872. 2268. 1362. <
814 3 -1 -33 -9 922. 1361. 907. <
814 2 -9 33 -1 922. 1361. 907. <
814 1 9 33 1 922. 1361. 907. <
815 2 8 34 -1 808. 2268. 1814. <
815 1 -8 34 1 808. 2268. 1814. <
816 2 -8 34 1 808. 1361. 1361. <
816 1 8 34 -1 808. 1361. 1361. <
817 2 6 34 -1 3329. 1815. 1815. <
817 1 -6 34 1 3329. 1815. 1815. <
818 2 -6 34 1 3328. 4083. 2268. <
818 1 6 34 -1 3328. 4083. 2268. <
819 2 4 34 -1 5854. 5898. 1815. o
819 1 -4 34 1 5854. 5898. 1815. o
820 2 -4 34 1 5855. 8619. 3174. o
820 1 4 34 -1 5855. 8619. 3174. o
821 2 2 34 -1 28560. 31302. 1802. o
821 1 -2 34 1 28560. 31302. 1802. o
822 2 -2 34 1 28561. 40375. 4967. o
822 1 2 34 -1 28561. 40375. 4967. o
823 2 0 34 -1 10754. 11341. 2268. o
823 1 0 34 1 10754. 11341. 2268. o
824 2 0 34 1 10754. 12249. 2720. o
824 1 0 34 -1 10754. 12249. 2720. o
825 2 -2 34 -1 28561. 34024. 3161. o
825 1 2 34 1 28561. 34024. 3161. o
826 2 2 34 1 28560. 29034. 1813. o
826 1 -2 34 -1 28560. 29034. 1813. o
827 2 -4 34 -1 5855. 4537. 2269. <
827 1 4 34 1 5855. 4537. 2269. <
828 2 -6 34 -1 3328. 1815. 1815. <
828 1 6 34 1 3328. 1815. 1815. <
829 2 -8 34 -1 808. 2722. 1360. <
829 1 8 34 1 808. 2722. 1360. <
830 3 1 -35 -9 3595. 5898. 904. o
830 2 -9 35 1 3595. 5898. 904. o
830 1 9 35 -1 3595. 5898. 904. o
831 3 -1 -35 7 17017. 5444. 2281. o
831 2 7 35 -1 17017. 5444. 2281. o
831 1 -7 35 1 17017. 5444. 2281. o
832 3 1 -35 -7 16900. 14063. 2273. o
832 2 -7 35 1 16900. 14063. 2273. o
832 1 7 35 -1 16900. 14063. 2273. o
833 3 -1 -35 5 36224. 14517. 3215. o
833 2 5 35 -1 36224. 14517. 3215. o
833 1 -5 35 1 36224. 14517. 3215. o
834 3 1 -35 -5 36277. 22229. 3207. o
834 2 -5 35 1 36277. 22229. 3207. o
834 1 5 35 -1 36277. 22229. 3207. o
835 3 -1 -35 3 88391. 101619. 4460. o
835 2 3 35 -1 88391. 101619. 4460. o
835 1 -3 35 1 88391. 101619. 4460. o
836 3 1 -35 -3 88517. 131560. 5191. o
836 2 -3 35 1 88517. 131560. 5191. o
836 1 3 35 -1 88517. 131560. 5191. o
837 3 -1 -35 1 126579. 151067. 2354. o
837 2 1 35 -1 126579. 151067. 2354. o
837 1 -1 35 1 126579. 151067. 2354. o
838 3 -1 -35 -1 126967. 158326. 3768. o
838 2 -1 35 -1 126967. 158326. 3768. o
838 1 1 35 1 126967. 158326. 3768. o
839 3 -1 -35 -3 88639. 117043. 3397. o
839 2 -3 35 -1 88639. 117043. 3397. o
839 1 3 35 1 88639. 117043. 3397. o
840 3 -1 -35 -5 36273. 26766. 3199. o
840 2 -5 35 -1 36273. 26766. 3199. o
840 1 5 35 1 36273. 26766. 3199. o
841 3 -1 -35 -7 17000. 14063. 1821. o
841 2 -7 35 -1 17000. 14063. 1821. o
841 1 7 35 1 17000. 14063. 1821. o
842 3 -1 -35 -9 3592. 4537. 1360. o
842 2 -9 35 -1 3592. 4537. 1360. o
842 1 9 35 1 3592. 4537. 1360. o
843 2 8 36 -1 202. 1361. 1814. <
843 1 -8 36 1 202. 1361. 1814. <
844 2 -8 36 1 202. 1815. 1361. <
844 1 8 36 -1 202. 1815. 1361. <
845 2 6 36 -1 647. 0. 1815. <
845 1 -6 36 1 647. 0. 1815. <
846 2 -6 36 1 648. 2722. 2268. <
846 1 6 36 -1 648. 2722. 2268. <
847 2 4 36 -1 1705. 1815. 1815. <
847 1 -4 36 1 1705. 1815. 1815. <
848 2 -4 36 1 1705. 4990. 3175. <
848 1 4 36 -1 1705. 4990. 3175. <
849 2 2 36 -1 8631. 9527. 2267. o
849 1 -2 36 1 8631. 9527. 2267. o
850 2 -2 36 1 8631. 11341. 4989. o
850 1 2 36 -1 8631. 11341. 4989. o
851 2 0 36 -1 923. 907. 1815. <
851 1 0 36 1 923. 907. 1815. <
852 2 0 36 1 923. 1815. 3629. <
852 1 0 36 -1 923. 1815. 3629. <
853 2 -2 36 -1 8631. 12249. 3172. o
853 1 2 36 1 8631. 12249. 3172. o
854 2 2 36 1 8631. 8166. 1815. o
854 1 -2 36 -1 8631. 8166. 1815. o
855 2 -4 36 -1 1705. 1815. 2268. <
855 1 4 36 1 1705. 1815. 2268. <
856 2 -6 36 -1 648. 1815. 1814. <
856 1 6 36 1 648. 1815. 1814. <
857 2 -8 36 -1 202. 454. 1361. <
857 1 8 36 1 202. 454. 1361. <
858 3 1 -37 -9 8059. 8166. 1361. o
858 2 -9 37 1 8059. 8166. 1361. o
858 1 9 37 -1 8059. 8166. 1361. o
859 3 -1 -37 7 38346. 19507. 2325. o
859 2 7 37 -1 38346. 19507. 2325. o
859 1 -7 37 1 38346. 19507. 2325. o
860 3 1 -37 -7 37923. 34478. 2734. o
860 2 -7 37 1 37923. 34478. 2734. o
860 1 7 37 -1 37923. 34478. 2734. o
861 3 -1 -37 5 66390. 32210. 3298. o
861 2 5 37 -1 66390. 32210. 3298. o
861 1 -5 37 1 66390. 32210. 3298. o
862 3 1 -37 -5 66632. 57161. 4120. o
862 2 -5 37 1 66632. 57161. 4120. o
862 1 5 37 -1 66632. 57161. 4120. o
863 3 -1 -37 3 90511. 74400. 5506. o
863 2 3 37 -1 90511. 74400. 5506. o
863 1 -3 37 1 90511. 74400. 5506. o
864 3 1 -37 -3 88274. 122941. 6187. o
864 2 -3 37 1 88274. 122941. 6187. o
864 1 3 37 -1 88274. 122941. 6187. o
865 3 -1 -37 1 27874. 34932. 2241. o
865 2 1 37 -1 27874. 34932. 2241. o
865 1 -1 37 1 27874. 34932. 2241. o
866 3 -1 -37 -1 27386. 34478. 5433. o
866 2 -1 37 -1 27386. 34478. 5433. o
866 1 1 37 1 27386. 34478. 5433. o
867 3 -1 -37 -3 89236. 97082. 3113. o
867 2 -3 37 -1 89236. 97082. 3113. o
867 1 3 37 1 89236. 97082. 3113. o
868 3 -1 -37 -5 66102. 61244. 4103. o
868 2 -5 37 -1 66102. 61244. 4103. o
868 1 5 37 1 66102. 61244. 4103. o
869 3 -1 -37 -7 38253. 22683. 1877. o
869 2 -7 37 -1 38253. 22683. 1877. o
869 1 7 37 1 38253. 22683. 1877. o
870 3 -1 -37 -9 7911. 7712. 1361. o
870 2 -9 37 -1 7911. 7712. 1361. o
870 1 9 37 1 7911. 7712. 1361. o
871 2 8 38 -1 44. 3176. 1360. o
871 1 -8 38 1 44. 3176. 1360. o
872 2 -8 38 1 44. -2268. 1814. <
872 1 8 38 -1 44. -2268. 1814. <
873 2 6 38 -1 12. 907. 1815. <
873 1 -6 38 1 12. 907. 1815. <
874 2 -6 38 1 12. -454. 2268. <
874 1 6 38 -1 12. -454. 2268. <
875 2 4 38 -1 57. 1361. 1814. <
875 1 -4 38 1 57. 1361. 1814. <
876 2 -4 38 1 57. -454. 3629. <
876 1 4 38 -1 57. -454. 3629. <
877 2 2 38 -1 1171. 907. 2268. <
877 1 -2 38 1 1171. 907. 2268. <
878 2 -2 38 1 1172. -454. 5444. <
878 1 2 38 -1 1172. -454. 5444. <
879 2 0 38 -1 939. 907. 2268. <
879 1 0 38 1 939. 907. 2268. <
880 2 0 38 1 939. 3176. 2721. <
880 1 0 38 -1 939. 3176. 2721. <
881 2 -2 38 -1 1172. 2722. 2722. <
881 1 2 38 1 1172. 2722. 2722. <
882 2 2 38 1 1171. 454. 1361. <
882 1 -2 38 -1 1171. 454. 1361. <
883 2 -4 38 -1 57. 2722. 1814. <
883 1 4 38 1 57. 2722. 1814. <
884 2 4 38 1 57. 0. 2722. <
884 1 -4 38 -1 57. 0. 2722. <
885 2 -6 38 -1 12. -1815. 1814. <
885 1 6 38 1 12. -1815. 1814. <
886 2 -8 38 -1 44. 1815. 1361. <
886 1 8 38 1 44. 1815. 1361. <
887 3 1 -39 -9 722. 907. 907. <
887 2 -9 39 1 722. 907. 907. <
887 1 9 39 -1 722. 907. 907. <
888 3 -1 -39 7 2248. 1361. 1815. <
888 2 7 39 -1 2248. 1361. 1815. <
888 1 -7 39 1 2248. 1361. 1815. <
889 3 1 -39 -7 2235. 3629. 1814. <
889 2 -7 39 1 2235. 3629. 1814. <
889 1 7 39 -1 2235. 3629. 1814. <
890 3 -1 -39 5 2691. 1361. 2269. <
890 2 5 39 -1 2691. 1361. 2269. <
890 1 -5 39 1 2691. 1361. 2269. <
891 3 1 -39 -5 2648. -3176. 3175. <
891 2 -5 39 1 2648. -3176. 3175. <
891 1 5 39 -1 2648. -3176. 3175. <
892 3 -1 -39 3 2364. 0. 2268. <
892 2 3 39 -1 2364. 0. 2268. <
892 1 -3 39 1 2364. 0. 2268. <
893 3 1 -39 -3 2333. 4990. 4082. <
893 2 -3 39 1 2333. 4990. 4082. <
893 1 3 39 -1 2333. 4990. 4082. <
894 3 -1 -39 1 628. -907. 2268. <
894 2 1 39 -1 628. -907. 2268. <
894 1 -1 39 1 628. -907. 2268. <
895 3 1 -39 -1 619. -2268. 4536. <
895 2 -1 39 1 619. -2268. 4536. <
895 1 1 39 -1 619. -2268. 4536. <
896 3 -1 -39 -1 624. -3629. 3175. <
896 2 -1 39 -1 624. -3629. 3175. <
896 1 1 39 1 624. -3629. 3175. <
897 3 1 -39 1 624. -1815. 1814. <
897 2 1 39 1 624. -1815. 1814. <
897 1 -1 39 -1 624. -1815. 1814. <
898 3 -1 -39 -3 2338. -454. 1361. <
898 2 -3 39 -1 2338. -454. 1361. <
898 1 3 39 1 2338. -454. 1361. <
899 3 1 -39 3 2359. 0. 1361. <
899 2 3 39 1 2359. 0. 1361. <
899 1 -3 39 -1 2359. 0. 1361. <
900 3 -1 -39 -5 2659. -2268. 1814. <
900 2 -5 39 -1 2659. -2268. 1814. <
900 1 5 39 1 2659. -2268. 1814. <
901 3 -1 -39 -7 2240. 907. 1361. <
901 2 -7 39 -1 2240. 907. 1361. <
901 1 7 39 1 2240. 907. 1361. <
902 3 -1 -39 -9 723. 2268. 1360. <
902 2 -9 39 -1 723. 2268. 1360. <
902 1 9 39 1 723. 2268. 1360. <
903 2 8 40 -1 197. 454. 1361. <
903 1 -8 40 1 197. 454. 1361. <
904 2 -8 40 1 197. 3176. 1814. <
904 1 8 40 -1 197. 3176. 1814. <
905 2 6 40 -1 487. 1815. 1814. <
905 1 -6 40 1 487. 1815. 1814. <
906 2 -6 40 1 486. 907. 2268. <
906 1 6 40 -1 486. 907. 2268. <
907 2 4 40 -1 2439. 1815. 1361. <
907 1 -4 40 1 2439. 1815. 1361. <
908 2 -4 40 1 2441. -3629. 3629. <
908 1 4 40 -1 2441. -3629. 3629. <
909 2 2 40 -1 339. 2722. 2268. <
909 1 -2 40 1 339. 2722. 2268. <
910 2 -2 40 1 338. 3176. 3629. <
910 1 2 40 -1 338. 3176. 3629. <
911 2 0 40 -1 12844. 16332. 2262. o
911 1 0 40 1 12844. 16332. 2262. o
912 2 0 40 1 12844. 15878. 3172. o
912 1 0 40 -1 12844. 15878. 3172. o
913 2 -2 40 -1 338. 1815. 1814. <
913 1 2 40 1 338. 1815. 1814. <
914 2 2 40 1 339. 907. 1815. <
914 1 -2 40 -1 339. 907. 1815. <
915 2 -4 40 -1 2441. 4083. 1814. o
915 1 4 40 1 2441. 4083. 1814. o
916 2 4 40 1 2439. 2722. 1815. <
916 1 -4 40 -1 2439. 2722. 1815. <
917 2 -6 40 -1 486. 2722. 1360. <
917 1 6 40 1 486. 2722. 1360. <
918 2 -8 40 -1 197. 454. 1361. <
918 1 8 40 1 197. 454. 1361. <
919 3 1 -41 -9 165. 907. 907. <
919 2 -9 41 1 165. 907. 907. <
919 1 9 41 -1 165. 907. 907. <
920 3 -1 -41 7 261. -907. 1815. <
920 2 7 41 -1 261. -907. 1815. <
920 1 -7 41 1 261. -907. 1815. <
921 3 1 -41 -7 257. 907. 2268. <
921 2 -7 41 1 257. 907. 2268. <
921 1 7 41 -1 257. 907. 2268. <
922 3 -1 -41 5 164. 1815. 2268. <
922 2 5 41 -1 164. 1815. 2268. <
922 1 -5 41 1 164. 1815. 2268. <
923 3 1 -41 -5 175. 2268. 3175. <
923 2 -5 41 1 175. 2268. 3175. <
923 1 5 41 -1 175. 2268. 3175. <
924 3 -1 -41 3 418. 454. 2268. <
924 2 3 41 -1 418. 454. 2268. <
924 1 -3 41 1 418. 454. 2268. <
925 3 1 -41 -3 398. 6351. 3173. <
925 2 -3 41 1 398. 6351. 3173. <
925 1 3 41 -1 398. 6351. 3173. <
926 3 -1 -41 1 1387. 1361. 2268. <
926 2 1 41 -1 1387. 1361. 2268. <
926 1 -1 41 1 1387. 1361. 2268. <
927 3 1 -41 -1 1390. 6351. 3628. <
927 2 -1 41 1 1390. 6351. 3628. <
927 1 1 41 -1 1390. 6351. 3628. <
928 3 -1 -41 -1 1389. -454. 4083. <
928 2 -1 41 -1 1389. -454. 4083. <
928 1 1 41 1 1389. -454. 4083. <
929 3 1 -41 1 1389. 1815. 1815. <
929 2 1 41 1 1389. 1815. 1815. <
929 1 -1 41 -1 1389. 1815. 1815. <
930 3 -1 -41 -3 409. 907. 1361. <
930 2 -3 41 -1 409. 907. 1361. <
930 1 3 41 1 409. 907. 1361. <
931 3 1 -41 3 407. 454. 1361. <
931 2 3 41 1 407. 454. 1361. <
931 1 -3 41 -1 407. 454. 1361. <
932 3 -1 -41 -5 165. 3176. 1814. <
932 2 -5 41 -1 165. 3176. 1814. <
932 1 5 41 1 165. 3176. 1814. <
933 3 -1 -41 -7 261. 454. 1361. <
933 2 -7 41 -1 261. 454. 1361. <
933 1 7 41 1 261. 454. 1361. <
934 3 -1 -41 -9 162. 2268. 906. o
934 2 -9 41 -1 162. 2268. 906. o
934 1 9 41 1 162. 2268. 906. o
935 2 -8 42 1 1061. 4083. 1813. o
935 1 8 42 -1 1061. 4083. 1813. o
936 2 6 42 -1 4729. 3629. 1815. <
936 1 -6 42 1 4729. 3629. 1815. <
937 2 -6 42 1 4731. 2722. 2723. <
937 1 6 42 -1 4731. 2722. 2723. <
938 2 4 42 -1 38454. 12249. 3221. o
938 1 -4 42 1 38454. 12249. 3221. o
939 2 2 42 -1 32499. 39014. 2698. o
939 1 -2 42 1 32499. 39014. 2698. o
940 2 -2 42 1 32498. 39014. 3612. o
940 1 2 42 -1 32498. 39014. 3612. o
941 2 0 42 -1 156273. 159687. 3589. o
941 1 0 42 1 156273. 159687. 3589. o
942 2 0 42 1 156272. 151521. 4130. o
942 1 0 42 -1 156272. 151521. 4130. o
943 2 -2 42 -1 32498. 40829. 2231. o
943 1 2 42 1 32498. 40829. 2231. o
944 2 4 42 1 38454. 30395. 3649. o
944 1 -4 42 -1 38454. 30395. 3649. o
945 2 -6 42 -1 4731. 4990. 1361. o
945 1 6 42 1 4731. 4990. 1361. o
946 2 -8 42 -1 1061. -907. 1361. <
946 1 8 42 1 1061. -907. 1361. <
947 3 1 -43 -9 164. 907. 907. <
947 2 -9 43 1 164. 907. 907. <
947 1 9 43 -1 164. 907. 907. <
948 3 -1 -43 7 645. -907. 1361. <
948 2 7 43 -1 645. -907. 1361. <
948 1 -7 43 1 645. -907. 1361. <
949 3 1 -43 -7 650. 4537. 2267. <
949 2 -7 43 1 650. 4537. 2267. <
949 1 7 43 -1 650. 4537. 2267. <
950 3 -1 -43 5 1985. 2268. 1815. <
950 2 5 43 -1 1985. 2268. 1815. <
950 1 -5 43 1 1985. 2268. 1815. <
951 3 1 -43 -5 1979. 1361. 2722. <
951 2 -5 43 1 1979. 1361. 2722. <
951 1 5 43 -1 1979. 1361. 2722. <
952 3 -1 -43 3 5270. 2268. 2269. <
952 2 3 43 -1 5270. 2268. 2269. <
952 1 -3 43 1 5270. 2268. 2269. <
953 3 1 -43 -3 5271. 4083. 2722. <
953 2 -3 43 1 5271. 4083. 2722. <
953 1 3 43 -1 5271. 4083. 2722. <
954 3 -1 -43 1 9082. 10888. 2720. o
954 2 1 43 -1 9082. 10888. 2720. o
954 1 -1 43 1 9082. 10888. 2720. o
955 3 1 -43 -1 9053. 13156. 2717. o
955 2 -1 43 1 9053. 13156. 2717. o
955 1 1 43 -1 9053. 13156. 2717. o
956 3 -1 -43 -1 9067. 9073. 2722. o
956 2 -1 43 -1 9067. 9073. 2722. o
956 1 1 43 1 9067. 9073. 2722. o
957 3 1 -43 1 9069. 8166. 2723. o
957 2 1 43 1 9069. 8166. 2723. o
957 1 -1 43 -1 9069. 8166. 2723. o
958 3 -1 -43 -3 5262. 5444. 1361. o
958 2 -3 43 -1 5262. 5444. 1361. o
958 1 3 43 1 5262. 5444. 1361. o
959 3 1 -43 3 5279. 5444. 1361. o
959 2 3 43 1 5279. 5444. 1361. o
959 1 -3 43 -1 5279. 5444. 1361. o
960 3 -1 -43 -5 1988. -1361. 1361. <
960 2 -5 43 -1 1988. -1361. 1361. <
960 1 5 43 1 1988. -1361. 1361. <
961 3 -1 -43 -7 645. 907. 1361. <
961 2 -7 43 -1 645. 907. 1361. <
961 1 7 43 1 645. 907. 1361. <
962 3 -1 -43 -9 164. 907. 907. <
962 2 -9 43 -1 164. 907. 907. <
962 1 9 43 1 164. 907. 907. <
963 2 -8 44 1 735. 4537. 1813. o
963 1 8 44 -1 735. 4537. 1813. o
964 2 6 44 -1 2548. 4990. 1813. o
964 1 -6 44 1 2548. 4990. 1813. o
965 2 -6 44 1 2545. -4083. 2721. <
965 1 6 44 -1 2545. -4083. 2721. <
966 2 4 44 -1 18138. 11795. 1828. o
966 1 -4 44 1 18138. 11795. 1828. o
967 2 2 44 -1 10065. 13610. 1808. o
967 1 -2 44 1 10065. 13610. 1808. o
968 2 -2 44 1 10061. 14063. 2717. o
968 1 2 44 -1 10061. 14063. 2717. o
969 2 0 44 -1 70025. 84380. 2608. o
969 1 0 44 1 70025. 84380. 2608. o
970 2 0 44 1 70025. 85741. 3535. o
970 1 0 44 -1 70025. 85741. 3535. o
971 2 -2 44 -1 10061. 17693. 1798. o
971 1 2 44 1 10061. 17693. 1798. o
972 2 4 44 1 18138. 15878. 3179. o
972 1 -4 44 -1 18138. 15878. 3179. o
973 2 -6 44 -1 2545. 2268. 1361. <
973 1 6 44 1 2545. 2268. 1361. <
974 2 -8 44 -1 735. 1815. 1361. <
974 1 8 44 1 735. 1815. 1361. <
975 3 1 -45 -9 571. 0. 907. <
975 2 -9 45 1 571. 0. 907. <
975 1 9 45 -1 571. 0. 907. <
976 3 -1 -45 7 2361. 2722. 1361. <
976 2 7 45 -1 2361. 2722. 1361. <
976 1 -7 45 1 2361. 2722. 1361. <
977 3 1 -45 -7 2353. 1815. 2268. <
977 2 -7 45 1 2353. 1815. 2268. <
977 1 7 45 -1 2353. 1815. 2268. <
978 3 -1 -45 5 8110. 4537. 1818. o
978 2 5 45 -1 8110. 4537. 1818. o
978 1 -5 45 1 8110. 4537. 1818. o
979 3 1 -45 -5 8123. 6351. 2270. o
979 2 -5 45 1 8123. 6351. 2270. o
979 1 5 45 -1 8123. 6351. 2270. o
980 3 -1 -45 3 20458. 18600. 1820. o
980 2 3 45 -1 20458. 18600. 1820. o
980 1 -3 45 1 20458. 18600. 1820. o
981 3 1 -45 -3 20360. 21322. 2720. o
981 2 -3 45 1 20360. 21322. 2720. o
981 1 3 45 -1 20360. 21322. 2720. o
982 3 -1 -45 1 31836. 30395. 2274. o
982 2 1 45 -1 31836. 30395. 2274. o
982 1 -1 45 1 31836. 30395. 2274. o
983 3 1 -45 -1 31772. 34478. 2713. o
983 2 -1 45 1 31772. 34478. 2713. o
983 1 1 45 -1 31772. 34478. 2713. o
984 3 -1 -45 -1 31802. 29488. 1825. o
984 2 -1 45 -1 31802. 29488. 1825. o
984 1 1 45 1 31802. 29488. 1825. o
985 3 1 -45 1 31806. 27673. 3186. o
985 2 1 45 1 31806. 27673. 3186. o
985 1 -1 45 -1 31806. 27673. 3186. o
986 3 -1 -45 -3 20398. 21322. 1812. o
986 2 -3 45 -1 20398. 21322. 1812. o
986 1 3 45 1 20398. 21322. 1812. o
987 3 1 -45 3 20420. 20868. 1813. o
987 2 3 45 1 20420. 20868. 1813. o
987 1 -3 45 -1 20420. 20868. 1813. o
988 3 -1 -45 -5 8097. 7258. 1362. o
988 2 -5 45 -1 8097. 7258. 1362. o
988 1 5 45 1 8097. 7258. 1362. o
989 3 -1 -45 -7 2361. 907. 908. <
989 2 -7 45 -1 2361. 907. 908. <
989 1 7 45 1 2361. 907. 908. <
990 3 -1 -45 -9 565. 454. 1361. <
990 2 -9 45 -1 565. 454. 1361. <
990 1 9 45 1 565. 454. 1361. <
991 2 -8 46 1 334. 4990. 1812. o
991 1 8 46 -1 334. 4990. 1812. o
992 2 6 46 -1 838. -1361. 1814. <
992 1 -6 46 1 838. -1361. 1814. <
993 2 -6 46 1 838. 6351. 2265. o
993 1 6 46 -1 838. 6351. 2265. o
994 2 4 46 -1 4268. 2722. 1362. <
994 1 -4 46 1 4268. 2722. 1362. <
995 2 -4 46 1 4267. 4537. 2268. <
995 1 4 46 -1 4267. 4537. 2268. <
996 2 2 46 -1 2427. 3629. 1360. o
996 1 -2 46 1 2427. 3629. 1360. o
997 2 -2 46 1 2428. 2722. 2268. <
997 1 2 46 -1 2428. 2722. 2268. <
998 2 0 46 -1 13921. 11341. 2272. o
998 1 0 46 1 13921. 11341. 2272. o
999 2 0 46 1 13921. 14517. 2721. o
999 1 0 46 -1 13921. 14517. 2721. o
1000 2 -2 46 -1 2428. 3629. 1360. o
1000 1 2 46 1 2428. 3629. 1360. o
1001 2 2 46 1 2427. 2722. 1815. <
1001 1 -2 46 -1 2427. 2722. 1815. <
1002 2 -4 46 -1 4267. 5444. 1360. o
1002 1 4 46 1 4267. 5444. 1360. o
1003 2 4 46 1 4268. 1815. 2269. <
1003 1 -4 46 -1 4268. 1815. 2269. <
1004 2 -6 46 -1 838. 1815. 907. <
1004 1 6 46 1 838. 1815. 907. <
1005 2 -8 46 -1 334. 907. 907. <
1005 1 8 46 1 334. 907. 907. <
1006 3 1 -47 -9 1786. 3629. 906. o
1006 2 -9 47 1 1786. 3629. 906. o
1006 1 9 47 -1 1786. 3629. 906. o
1007 3 -1 -47 7 8621. 7258. 1816. o
1007 2 7 47 -1 8621. 7258. 1816. o
1007 1 -7 47 1 8621. 7258. 1816. o
1008 3 1 -47 -7 8646. 9073. 2268. o
1008 2 -7 47 1 8646. 9073. 2268. o
1008 1 7 47 -1 8646. 9073. 2268. o
1009 3 -1 -47 5 26468. 8166. 2299. o
1009 2 5 47 -1 26468. 8166. 2299. o
1009 1 -5 47 1 26468. 8166. 2299. o
1010 3 1 -47 -5 26498. 14517. 2744. o
1010 2 -5 47 1 26498. 14517. 2744. o
1010 1 5 47 -1 26498. 14517. 2744. o
1011 3 -1 -47 3 60831. 44005. 2803. o
1011 2 3 47 -1 60831. 44005. 2803. o
1011 1 -3 47 1 60831. 44005. 2803. o
1012 3 -1 -47 1 79461. 63966. 2391. o
1012 2 1 47 -1 79461. 63966. 2391. o
1012 1 -1 47 1 79461. 63966. 2391. o
1013 3 1 -47 -1 79294. 77122. 3190. o
1013 2 -1 47 1 79294. 77122. 3190. o
1013 1 1 47 -1 79294. 77122. 3190. o
1014 3 -1 -47 -1 79373. 51263. 4636. o
1014 2 -1 47 -1 79373. 51263. 4636. o
1014 1 1 47 1 79373. 51263. 4636. o
1015 3 1 -47 1 79382. 65326. 4147. o
1015 2 1 47 1 79382. 65326. 4147. o
1015 1 -1 47 -1 79382. 65326. 4147. o
1016 3 -1 -47 -3 60719. 64419. 3156. o
1016 2 -3 47 -1 60719. 64419. 3156. o
1016 1 3 47 1 60719. 64419. 3156. o
1017 3 -1 -47 -5 26445. 21322. 1832. o
1017 2 -5 47 -1 26445. 21322. 1832. o
1017 1 5 47 1 26445. 21322. 1832. o
1018 3 -1 -47 -7 8622. 4083. 1366. o
1018 2 -7 47 -1 8622. 4083. 1366. o
1018 1 7 47 1 8622. 4083. 1366. o
1019 3 -1 -47 -9 1779. 3629. 1360. o
1019 2 -9 47 -1 1779. 3629. 1360. o
1019 1 9 47 1 1779. 3629. 1360. o
1020 2 -8 48 1 67. 2268. 1814. <
1020 1 8 48 -1 67. 2268. 1814. <
1021 2 6 48 -1 146. 2722. 1360. <
1021 1 -6 48 1 146. 2722. 1360. <
1022 2 -6 48 1 146. 2268. 1814. <
1022 1 6 48 -1 146. 2268. 1814. <
1023 2 4 48 -1 478. 0. 1361. <
1023 1 -4 48 1 478. 0. 1361. <
1024 2 -4 48 1 478. 0. 1815. <
1024 1 4 48 -1 478. 0. 1815. <
1025 2 2 48 -1 60. 454. 1361. <
1025 1 -2 48 1 60. 454. 1361. <
1026 2 -2 48 1 60. 1361. 1814. <
1026 1 2 48 -1 60. 1361. 1814. <
1027 2 0 48 -1 3040. 1815. 1815. <
1027 1 0 48 1 3040. 1815. 1815. <
1028 2 0 48 1 3040. 3629. 2268. <
1028 1 0 48 -1 3040. 3629. 2268. <
1029 2 -2 48 -1 60. -907. 907. <
1029 1 2 48 1 60. -907. 907. <
1030 2 2 48 1 60. -454. 1815. <
1030 1 -2 48 -1 60. -454. 1815. <
1031 2 -4 48 -1 478. 907. 907. <
1031 1 4 48 1 478. 907. 907. <
1032 2 4 48 1 478. 0. 2268. <
1032 1 -4 48 -1 478. 0. 2268. <
1033 2 -6 48 -1 146. 1815. 907. <
1033 1 6 48 1 146. 1815. 907. <
1034 2 -8 48 -1 67. 2268. 906. o
1034 1 8 48 1 67. 2268. 906. o
1035 3 1 -49 -9 4168. 907. 909. <
1035 2 -9 49 1 4168. 907. 909. <
1035 1 9 49 -1 4168. 907. 909. <
1036 3 -1 -49 7 23948. 9073. 1845. o
1036 2 7 49 -1 23948. 9073. 1845. o
1036 1 -7 49 1 23948. 9073. 1845. o
1037 3 1 -49 -7 23883. 14517. 2288. o
1037 2 -7 49 1 23883. 14517. 2288. o
1037 1 7 49 -1 23883. 14517. 2288. o
1038 3 -1 -49 5 102527. 53531. 3451. o
1038 2 5 49 -1 102527. 53531. 3451. o
1038 1 -5 49 1 102527. 53531. 3451. o
1039 3 1 -49 -5 102927. 62151. 3425. o
1039 2 -5 49 1 102927. 62151. 3425. o
1039 1 5 49 -1 102927. 62151. 3425. o
1040 3 -1 -49 3 373826. 438231. 5656. o
1040 2 3 49 -1 373826. 438231. 5656. o
1040 1 -3 49 1 373826. 438231. 5656. o
1041 3 -1 -49 1 746781. 670957. 6981. o
1041 2 1 49 -1 746781. 670957. 6981. o
1041 1 -1 49 1 746781. 670957. 6981. o
1042 3 1 -49 -1 747506. 802971. 4806. o
1042 2 -1 49 1 747506. 802971. 4806. o
1042 1 1 49 -1 747506. 802971. 4806. o
1043 3 -1 -49 -1 747164. 644191. 9836. o
1043 2 -1 49 -1 747164. 644191. 9836. o
1043 1 1 49 1 747164. 644191. 9836. o
1044 3 1 -49 1 747123. 779381. 6801. o
1044 2 1 49 1 747123. 779381. 6801. o
1044 1 -1 49 -1 747123. 779381. 6801. o
1045 3 -1 -49 -3 374230. 494485. 9673. o
1045 2 -3 49 -1 374230. 494485. 9673. o
1045 1 3 49 1 374230. 494485. 9673. o
1046 3 -1 -49 -5 102742. 94360. 2362. o
1046 2 -5 49 -1 102742. 94360. 2362. o
1046 1 5 49 1 102742. 94360. 2362. o
1047 3 -1 -49 -7 23973. 8619. 1402. o
1047 2 -7 49 -1 23973. 8619. 1402. o
1047 1 7 49 1 23973. 8619. 1402. o
1048 3 -1 -49 -9 4135. 2268. 909. o
1048 2 -9 49 -1 4135. 2268. 909. o
1048 1 9 49 1 4135. 2268. 909. o
1049 2 -8 50 1 18. 454. 1815. <
1049 1 8 50 -1 18. 454. 1815. <
1050 2 6 50 -1 20. 1361. 1361. <
1050 1 -6 50 1 20. 1361. 1361. <
1051 2 -6 50 1 20. 907. 1815. <
1051 1 6 50 -1 20. 907. 1815. <
1052 2 4 50 -1 4. 454. 1361. <
1052 1 -4 50 1 4. 454. 1361. <
1053 2 -4 50 1 4. 2722. 1814. <
1053 1 4 50 -1 4. 2722. 1814. <
1054 2 2 50 -1 660. 1815. 1361. <
1054 1 -2 50 1 660. 1815. 1361. <
1055 2 -2 50 1 659. 1815. 1814. <
1055 1 2 50 -1 659. 1815. 1814. <
1056 2 0 50 -1 424. 907. 1361. <
1056 1 0 50 1 424. 907. 1361. <
1057 2 0 50 1 424. -454. 2722. <
1057 1 0 50 -1 424. -454. 2722. <
1058 2 -2 50 -1 659. 1361. 1361. <
1058 1 2 50 1 659. 1361. 1361. <
1059 2 2 50 1 660. 907. 1815. <
1059 1 -2 50 -1 660. 907. 1815. <
1060 2 -4 50 -1 4. 907. 1361. <
1060 1 4 50 1 4. 907. 1361. <
1061 2 4 50 1 4. 0. 1815. <
1061 1 -4 50 -1 4. 0. 1815. <
1062 2 -6 50 -1 20. 907. 907. <
1062 1 6 50 1 20. 907. 907. <
1063 2 -8 50 -1 18. 907. 907. <
1063 1 8 50 1 18. 907. 907. <
1064 3 -1 -51 7 1478. 2268. 1361. <
1064 2 7 51 -1 1478. 2268. 1361. <
1064 1 -7 51 1 1478. 2268. 1361. <
1065 3 1 -51 -7 1487. 0. 1815. <
1065 2 -7 51 1 1487. 0. 1815. <
1065 1 7 51 -1 1487. 0. 1815. <
1066 3 -1 -51 5 2585. -454. 1815. <
1066 2 5 51 -1 2585. -454. 1815. <
1066 1 -5 51 1 2585. -454. 1815. <
1067 3 1 -51 -5 2618. -4083. 1813. <
1067 2 -5 51 1 2618. -4083. 1813. <
1067 1 5 51 -1 2618. -4083. 1813. <
1068 3 -1 -51 3 4299. -4537. 2721. <
1068 2 3 51 -1 4299. -4537. 2721. <
1068 1 -3 51 1 4299. -4537. 2721. <
1069 3 1 -51 -3 4358. -2722. 2268. <
1069 2 -3 51 1 4358. -2722. 2268. <
1069 1 3 51 -1 4358. -2722. 2268. <
1070 3 -1 -51 1 4040. 2268. 1362. <
1070 2 1 51 -1 4040. 2268. 1362. <
1070 1 -1 51 1 4040. 2268. 1362. <
1071 3 1 -51 -1 4088. 7712. 2720. o
1071 2 -1 51 1 4088. 7712. 2720. o
1071 1 1 51 -1 4088. 7712. 2720. o
1072 3 -1 -51 -1 4065. 2268. 1815. <
1072 2 -1 51 -1 4065. 2268. 1815. <
1072 1 1 51 1 4065. 2268. 1815. <
1073 3 1 -51 1 4063. 907. 2723. <
1073 2 1 51 1 4063. 907. 2723. <
1073 1 -1 51 -1 4063. 907. 2723. <
1074 3 -1 -51 -3 4343. -3176. 1814. <
1074 2 -3 51 -1 4343. -3176. 1814. <
1074 1 3 51 1 4343. -3176. 1814. <
1075 3 1 -51 3 4314. -2268. 1815. <
1075 2 3 51 1 4314. -2268. 1815. <
1075 1 -3 51 -1 4314. -2268. 1815. <
1076 3 -1 -51 -5 2608. -454. 908. <
1076 2 -5 51 -1 2608. -454. 908. <
1076 1 5 51 1 2608. -454. 908. <
1077 3 -1 -51 -7 1485. 2722. 906. o
1077 2 -7 51 -1 1485. 2722. 906. o
1077 1 7 51 1 1485. 2722. 906. o
1078 2 -8 52 1 29. 907. 1815. <
1078 1 8 52 -1 29. 907. 1815. <
1079 2 6 52 -1 192. 2268. 1360. <
1079 1 -6 52 1 192. 2268. 1360. <
1080 2 -6 52 1 192. 3176. 1814. <
1080 1 6 52 -1 192. 3176. 1814. <
1081 2 4 52 -1 141. 1815. 907. <
1081 1 -4 52 1 141. 1815. 907. <
1082 2 -4 52 1 141. 2268. 1814. <
1082 1 4 52 -1 141. 2268. 1814. <
1083 2 2 52 -1 2981. 4083. 1360. o
1083 1 -2 52 1 2981. 4083. 1360. o
1084 2 -2 52 1 2980. 5444. 1813. o
1084 1 2 52 -1 2980. 5444. 1813. o
1085 2 0 52 -1 156. 1815. 1361. <
1085 1 0 52 1 156. 1815. 1361. <
1086 2 0 52 1 156. 1815. 1814. <
1086 1 0 52 -1 156. 1815. 1814. <
1087 2 -2 52 -1 2980. 4083. 1360. o
1087 1 2 52 1 2980. 4083. 1360. o
1088 2 2 52 1 2981. 3629. 2268. <
1088 1 -2 52 -1 2981. 3629. 2268. <
1089 2 -4 52 -1 141. 1815. 1361. <
1089 1 4 52 1 141. 1815. 1361. <
1090 2 4 52 1 141. 907. 1815. <
1090 1 -4 52 -1 141. 907. 1815. <
1091 2 -6 52 -1 192. 907. 907. <
1091 1 6 52 1 192. 907. 907. <
1092 2 -8 52 -1 29. -907. 907. <
1092 1 8 52 1 29. -907. 907. <
1093 3 -1 -53 7 293. 454. 1361. <
1093 2 7 53 -1 293. 454. 1361. <
1093 1 -7 53 1 293. 454. 1361. <
1094 3 1 -53 -7 290. 2722. 1814. <
1094 2 -7 53 1 290. 2722. 1814. <
1094 1 7 53 -1 290. 2722. 1814. <
1095 3 -1 -53 5 799. 454. 1361. <
1095 2 5 53 -1 799. 454. 1361. <
1095 1 -5 53 1 799. 454. 1361. <
1096 3 1 -53 -5 806. 2722. 1814. <
1096 2 -5 53 1 806. 2722. 1814. <
1096 1 5 53 -1 806. 2722. 1814. <
1097 3 -1 -53 3 1411. 907. 1361. <
1097 2 3 53 -1 1411. 907. 1361. <
1097 1 -3 53 1 1411. 907. 1361. <
1098 3 1 -53 -3 1416. 1815. 1815. <
1098 2 -3 53 1 1416. 1815. 1815. <
1098 1 3 53 -1 1416. 1815. 1815. <
1099 3 -1 -53 1 1705. 1815. 1361. <
1099 2 1 53 -1 1705. 1815. 1361. <
1099 1 -1 53 1 1705. 1815. 1361. <
1100 3 1 -53 -1 1724. 907. 1815. <
1100 2 -1 53 1 1724. 907. 1815. <
1100 1 1 53 -1 1724. 907. 1815. <
1101 3 -1 -53 -1 1715. 2722. 907. o
1101 2 -1 53 -1 1715. 2722. 907. o
1101 1 1 53 1 1715. 2722. 907. o
1102 3 1 -53 1 1714. 1815. 2268. <
1102 2 1 53 1 1714. 1815. 2268. <
1102 1 -1 53 -1 1714. 1815. 2268. <
1103 3 -1 -53 -3 1418. 0. 1361. <
1103 2 -3 53 -1 1418. 0. 1361. <
1103 1 3 53 1 1418. 0. 1361. <
1104 3 1 -53 3 1408. 907. 1361. <
1104 2 3 53 1 1408. 907. 1361. <
1104 1 -3 53 -1 1408. 907. 1361. <
1105 3 -1 -53 -5 802. 454. 907. <
1105 2 -5 53 -1 802. 454. 907. <
1105 1 5 53 1 802. 454. 907. <
1106 3 -1 -53 -7 293. 0. 907. <
1106 2 -7 53 -1 293. 0. 907. <
1106 1 7 53 1 293. 0. 907. <
1107 2 -8 54 1 169. 2722. 1814. <
1107 1 8 54 -1 169. 2722. 1814. <
1108 2 6 54 -1 1619. -454. 1361. <
1108 1 -6 54 1 1619. -454. 1361. <
1109 2 -6 54 1 1620. 1361. 1815. <
1109 1 6 54 -1 1620. 1361. 1815. <
1110 2 4 54 -1 2661. -907. 1815. <
1110 1 -4 54 1 2661. -907. 1815. <
1111 2 -4 54 1 2659. 1361. 1815. <
1111 1 4 54 -1 2659. 1361. 1815. <
1112 2 2 54 -1 19722. 14063. 1379. o
1112 1 -2 54 1 19722. 14063. 1379. o
1113 2 -2 54 1 19726. 12702. 1830. o
1113 1 2 54 -1 19726. 12702. 1830. o
1114 2 0 54 -1 6367. 5898. 1362. o
1114 1 0 54 1 6367. 5898. 1362. o
1115 2 0 54 1 6367. 9527. 1811. o
1115 1 0 54 -1 6367. 9527. 1811. o
1116 2 -2 54 -1 19726. 17239. 1370. o
1116 1 2 54 1 19726. 17239. 1370. o
1117 2 2 54 1 19722. 14971. 2730. o
1117 1 -2 54 -1 19722. 14971. 2730. o
1118 2 -4 54 -1 2659. 1361. 1361. <
1118 1 4 54 1 2659. 1361. 1361. <
1119 2 4 54 1 2661. 1815. 2268. <
1119 1 -4 54 -1 2661. 1815. 2268. <
1120 2 -6 54 -1 1620. 907. 908. <
1120 1 6 54 1 1620. 907. 908. <
1121 2 -8 54 -1 169. 907. 907. <
1121 1 8 54 1 169. 907. 907. <
1122 3 -1 -55 7 306. 0. 1361. <
1122 2 7 55 -1 306. 0. 1361. <
1122 1 -7 55 1 306. 0. 1361. <
1123 3 1 -55 -7 309. -1815. 1361. <
1123 2 -7 55 1 309. -1815. 1361. <
1123 1 7 55 -1 309. -1815. 1361. <
1124 3 -1 -55 5 914. 454. 1361. <
1124 2 5 55 -1 914. 454. 1361. <
1124 1 -5 55 1 914. 454. 1361. <
1125 3 1 -55 -5 902. -1361. 1814. <
1125 2 -5 55 1 902. -1361. 1814. <
1125 1 5 55 -1 902. -1361. 1814. <
1126 3 -1 -55 3 2297. 454. 908. <
1126 2 3 55 -1 2297. 454. 908. <
1126 1 -3 55 1 2297. 454. 908. <
1127 3 1 -55 -3 2319. 907. 1815. <
1127 2 -3 55 1 2319. 907. 1815. <
1127 1 3 55 -1 2319. 907. 1815. <
1128 3 -1 -55 1 4813. 5444. 1360. o
1128 2 1 55 -1 4813. 5444. 1360. o
1128 1 -1 55 1 4813. 5444. 1360. o
1129 3 1 -55 -1 4820. 3176. 1816. <
1129 2 -1 55 1 4820. 3176. 1816. <
1129 1 1 55 -1 4820. 3176. 1816. <
1130 3 -1 -55 -1 4817. 5898. 906. o
1130 2 -1 55 -1 4817. 5898. 906. o
1130 1 1 55 1 4817. 5898. 906. o
1131 3 1 -55 1 4816. 6805. 1813. o
1131 2 1 55 1 4816. 6805. 1813. o
1131 1 -1 55 -1 4816. 6805. 1813. o
1132 3 -1 -55 -3 2307. 1815. 908. <
1132 2 -3 55 -1 2307. 1815. 908. <
1132 1 3 55 1 2307. 1815. 908. <
1133 3 1 -55 3 2309. 2722. 907. o
1133 2 3 55 1 2309. 2722. 907. o
1133 1 -3 55 -1 2309. 2722. 907. o
1134 3 -1 -55 -5 913. 1361. 907. <
1134 2 -5 55 -1 913. 1361. 907. <
1134 1 5 55 1 913. 1361. 907. <
1135 3 -1 -55 -7 305. 907. 907. <
1135 2 -7 55 -1 305. 907. 907. <
1135 1 7 55 1 305. 907. 907. <
1136 2 -8 56 1 150. 454. 1361. <
1136 1 8 56 -1 150. 454. 1361. <
1137 2 6 56 -1 1272. 2268. 1361. <
1137 1 -6 56 1 1272. 2268. 1361. <
1138 2 -6 56 1 1271. 1361. 1361. <
1138 1 6 56 -1 1271. 1361. 1361. <
1139 2 4 56 -1 1347. 907. 1815. <
1139 1 -4 56 1 1347. 907. 1815. <
1140 2 -4 56 1 1349. -1361. 1361. <
1140 1 4 56 -1 1349. -1361. 1361. <
1141 2 2 56 -1 18863. 18146. 1364. o
1141 1 -2 56 1 18863. 18146. 1364. o
1142 2 -2 56 1 18858. 15424. 1823. o
1142 1 2 56 -1 18858. 15424. 1823. o
1143 2 0 56 -1 821. 2722. 906. o
1143 1 0 56 1 821. 2722. 906. o
1144 2 0 56 1 821. 2722. 1360. <
1144 1 0 56 -1 821. 2722. 1360. <
1145 2 -2 56 -1 18858. 21776. 1349. o
1145 1 2 56 1 18858. 21776. 1349. o
1146 2 2 56 1 18863. 18600. 2722. o
1146 1 -2 56 -1 18863. 18600. 2722. o
1147 2 -4 56 -1 1349. 907. 907. <
1147 1 4 56 1 1349. 907. 907. <
1148 2 4 56 1 1347. 1361. 2268. <
1148 1 -4 56 -1 1347. 1361. 2268. <
1149 2 -6 56 -1 1271. 907. 907. <
1149 1 6 56 1 1271. 907. 907. <
1150 2 -8 56 -1 150. 1361. 907. <
1150 1 8 56 1 150. 1361. 907. <
1151 3 1 -57 -7 805. 1815. 1361. <
1151 2 -7 57 1 805. 1815. 1361. <
1151 1 7 57 -1 805. 1815. 1361. <
1152 3 -1 -57 5 2692. 907. 1361. <
1152 2 5 57 -1 2692. 907. 1361. <
1152 1 -5 57 1 2692. 907. 1361. <
1153 3 1 -57 -5 2701. 1815. 1361. <
1153 2 -5 57 1 2701. 1815. 1361. <
1153 1 5 57 -1 2701. 1815. 1361. <
1154 3 -1 -57 3 7311. 6805. 908. o
1154 2 3 57 -1 7311. 6805. 908. o
1154 1 -3 57 1 7311. 6805. 908. o
1155 3 1 -57 -3 7337. 8619. 1813. o
1155 2 -3 57 1 7337. 8619. 1813. o
1155 1 3 57 -1 7337. 8619. 1813. o
1156 3 -1 -57 1 13826. 12702. 1364. o
1156 2 1 57 -1 13826. 12702. 1364. o
1156 1 -1 57 1 13826. 12702. 1364. o
1157 3 1 -57 -1 13871. 12249. 1818. o
1157 2 -1 57 1 13871. 12249. 1818. o
1157 1 1 57 -1 13871. 12249. 1818. o
1158 3 -1 -57 -1 13850. 13156. 1363. o
1158 2 -1 57 -1 13850. 13156. 1363. o
1158 1 1 57 1 13850. 13156. 1363. o
1159 3 1 -57 1 13847. 17239. 1807. o
1159 2 1 57 1 13847. 17239. 1807. o
1159 1 -1 57 -1 13847. 17239. 1807. o
1160 3 -1 -57 -3 7336. 6805. 1362. o
1160 2 -3 57 -1 7336. 6805. 1362. o
1160 1 3 57 1 7336. 6805. 1362. o
1161 3 1 -57 3 7312. 8166. 1360. o
1161 2 3 57 1 7312. 8166. 1360. o
1161 1 -3 57 -1 7312. 8166. 1360. o
1162 3 -1 -57 -5 2700. 454. 908. <
1162 2 -5 57 -1 2700. 454. 908. <
1162 1 5 57 1 2700. 454. 908. <
1163 3 -1 -57 -7 810. 907. 907. <
1163 2 -7 57 -1 810. 907. 907. <
1163 1 7 57 1 810. 907. 907. <
1164 2 -8 58 1 55. 907. 907. <
1164 1 8 58 -1 55. 907. 907. <
1165 2 6 58 -1 239. -1361. 1361. <
1165 1 -6 58 1 239. -1361. 1361. <
1166 2 -6 58 1 238. 0. 1361. <
1166 1 6 58 -1 238. 0. 1361. <
1167 2 4 58 -1 234. 0. 907. <
1167 1 -4 58 1 234. 0. 907. <
1168 2 -4 58 1 234. 1815. 1361. <
1168 1 4 58 -1 234. 1815. 1361. <
1169 2 2 58 -1 1793. 1361. 908. <
1169 1 -2 58 1 1793. 1361. 908. <
1170 2 -2 58 1 1793. 3629. 1360. o
1170 1 2 58 -1 1793. 3629. 1360. o
1171 2 0 58 -1 130. 0. 907. <
1171 1 0 58 1 130. 0. 907. <
1172 2 0 58 1 130. 1361. 1361. <
1172 1 0 58 -1 130. 1361. 1361. <
1173 2 -2 58 -1 1793. 454. 908. <
1173 1 2 58 1 1793. 454. 908. <
1174 2 2 58 1 1793. 454. 2268. <
1174 1 -2 58 -1 1793. 454. 2268. <
1175 2 -4 58 -1 234. 0. 907. <
1175 1 4 58 1 234. 0. 907. <
1176 2 4 58 1 234. 0. 1361. <
1176 1 -4 58 -1 234. 0. 1361. <
1177 2 -6 58 -1 238. 1361. 907. <
1177 1 6 58 1 238. 1361. 907. <
1178 2 -8 58 -1 55. -907. 907. <
1178 1 8 58 1 55. -907. 907. <
1179 3 1 -59 -7 1855. 907. 908. <
1179 2 -7 59 1 1855. 907. 908. <
1179 1 7 59 -1 1855. 907. 908. <
1180 3 -1 -59 5 4931. 1815. 1363. <
1180 2 5 59 -1 4931. 1815. 1363. <
1180 1 -5 59 1 4931. 1815. 1363. <
1181 3 1 -59 -5 4925. 3176. 1362. o
1181 2 -5 59 1 4925. 3176. 1362. o
1181 1 5 59 -1 4925. 3176. 1362. o
1182 3 -1 -59 3 12644. 12249. 909. o
1182 2 3 59 -1 12644. 12249. 909. o
1182 1 -3 59 1 12644. 12249. 909. o
1183 3 1 -59 -3 12689. 14517. 1811. o
1183 2 -3 59 1 12689. 14517. 1811. o
1183 1 3 59 -1 12689. 14517. 1811. o
1184 3 -1 -59 1 23128. 24951. 1352. o
1184 2 1 59 -1 23128. 24951. 1352. o
1184 1 -1 59 1 23128. 24951. 1352. o
1185 3 1 -59 -1 23193. 31302. 1780. o
1185 2 -1 59 1 23193. 31302. 1780. o
1185 1 1 59 -1 23193. 31302. 1780. o
1186 3 -1 -59 -1 23162. 21776. 1367. o
1186 2 -1 59 -1 23162. 21776. 1367. o
1186 1 1 59 1 23162. 21776. 1367. o
1187 3 1 -59 1 23158. 26766. 1801. o
1187 2 1 59 1 23158. 26766. 1801. o
1187 1 -1 59 -1 23158. 26766. 1801. o
1188 3 -1 -59 -3 12688. 14517. 1356. o
1188 2 -3 59 -1 12688. 14517. 1356. o
1188 1 3 59 1 12688. 14517. 1356. o
1189 3 1 -59 3 12645. 13610. 1813. o
1189 2 3 59 1 12645. 13610. 1813. o
1189 1 -3 59 -1 12645. 13610. 1813. o
1190 3 -1 -59 -5 4941. 3629. 909. o
1190 2 -5 59 -1 4941. 3629. 909. o
1190 1 5 59 1 4941. 3629. 909. o
1191 3 -1 -59 -7 1865. 1361. 908. <
1191 2 -7 59 -1 1865. 1361. 908. <
1191 1 7 59 1 1865. 1361. 908. <
1192 2 -8 60 1 12. 2722. 906. o
1192 1 8 60 -1 12. 2722. 906. o
1193 2 6 60 -1 34. -907. 1361. <
1193 1 -6 60 1 34. -907. 1361. <
1194 2 -6 60 1 34. 1361. 1361. <
1194 1 6 60 -1 34. 1361. 1361. <
1195 2 4 60 -1 25. 0. 907. <
1195 1 -4 60 1 25. 0. 907. <
1196 2 -4 60 1 25. 2722. 1360. <
1196 1 4 60 -1 25. 2722. 1360. <
1197 2 2 60 -1 130. 454. 907. <
1197 1 -2 60 1 130. 454. 907. <
1198 2 -2 60 1 131. 1361. 1361. <
1198 1 2 60 -1 131. 1361. 1361. <
1199 2 0 60 -1 168. 1361. 907. <
1199 1 0 60 1 168. 1361. 907. <
1200 2 0 60 1 168. 1815. 1361. <
1200 1 0 60 -1 168. 1815. 1361. <
1201 2 -2 60 -1 131. 454. 907. <
1201 1 2 60 1 131. 454. 907. <
1202 2 2 60 1 130. 2268. 2268. <
1202 1 -2 60 -1 130. 2268. 2268. <
1203 2 -4 60 -1 25. 907. 907. <
1203 1 4 60 1 25. 907. 907. <
1204 2 4 60 1 25. 454. 907. <
1204 1 -4 60 -1 25. 454. 907. <
1205 2 -6 60 -1 34. 1361. 907. <
1205 1 6 60 1 34. 1361. 907. <
1206 2 -8 60 -1 12. 454. 907. <
1206 1 8 60 1 12. 454. 907. <
1207 3 1 -61 -7 7046. 2722. 1817. <
1207 2 -7 61 1 7046. 2722. 1817. <
1207 1 7 61 -1 7046. 2722. 1817. <
1208 3 -1 -61 5 14621. 15878. 1357. o
1208 2 5 61 -1 14621. 15878. 1357. o
1208 1 -5 61 1 14621. 15878. 1357. o
1209 3 1 -61 -5 14553. 8619. 1824. o
1209 2 -5 61 1 14553. 8619. 1824. o
1209 1 5 61 -1 14553. 8619. 1824. o
1210 3 -1 -61 3 15243. 15424. 1360. o
1210 2 3 61 -1 15243. 15424. 1360. o
1210 1 -3 61 1 15243. 15424. 1360. o
1211 3 1 -61 -3 14980. 14063. 1817. o
1211 2 -3 61 1 14980. 14063. 1817. o
1211 1 3 61 -1 14980. 14063. 1817. o
1212 3 -1 -61 1 8405. 11341. 898. o
1212 2 1 61 -1 8405. 11341. 898. o
1212 1 -1 61 1 8405. 11341. 898. o
1213 3 1 -61 -1 8212. 7258. 1816. o
1213 2 -1 61 1 8212. 7258. 1816. o
1213 1 1 61 -1 8212. 7258. 1816. o
1214 3 -1 -61 -1 8303. 10434. 1357. o
1214 2 -1 61 -1 8303. 10434. 1357. o
1214 1 1 61 1 8303. 10434. 1357. o
1215 3 1 -61 1 8314. 11341. 2265. o
1215 2 1 61 1 8314. 11341. 2265. o
1215 1 -1 61 -1 8314. 11341. 2265. o
1216 3 -1 -61 -3 15064. 19507. 1345. o
1216 2 -3 61 -1 15064. 19507. 1345. o
1216 1 3 61 1 15064. 19507. 1345. o
1217 3 1 -61 3 15159. 17239. 2264. o
1217 2 3 61 1 15159. 17239. 2264. o
1217 1 -3 61 -1 15159. 17239. 2264. o
1218 3 -1 -61 -5 14552. 17239. 1352. o
1218 2 -5 61 -1 14552. 17239. 1352. o
1218 1 5 61 1 14552. 17239. 1352. o
1219 3 -1 -61 -7 7060. 4083. 912. o
1219 2 -7 61 -1 7060. 4083. 912. o
1219 1 7 61 1 7060. 4083. 912. o
1220 2 6 62 -1 7. 907. 1361. <
1220 1 -6 62 1 7. 907. 1361. <
1221 2 -6 62 1 7. -454. 1361. <
1221 1 6 62 -1 7. -454. 1361. <
1222 2 4 62 -1 52. 0. 907. <
1222 1 -4 62 1 52. 0. 907. <
1223 2 -4 62 1 52. 1361. 1361. <
1223 1 4 62 -1 52. 1361. 1361. <
1224 2 2 62 -1 6. 1815. 907. <
1224 1 -2 62 1 6. 1815. 907. <
1225 2 -2 62 1 6. -454. 1361. <
1225 1 2 62 -1 6. -454. 1361. <
1226 2 0 62 -1 308. 0. 907. <
1226 1 0 62 1 308. 0. 907. <
1227 2 0 62 1 308. 907. 1361. <
1227 1 0 62 -1 308. 907. 1361. <
1228 2 -2 62 -1 6. 907. 907. <
1228 1 2 62 1 6. 907. 907. <
1229 2 2 62 1 6. 1361. 1361. <
1229 1 -2 62 -1 6. 1361. 1361. <
1230 2 -4 62 -1 52. -907. 907. <
1230 1 4 62 1 52. -907. 907. <
1231 2 4 62 1 52. 454. 907. <
1231 1 -4 62 -1 52. 454. 907. <
1232 2 -6 62 -1 7. 0. 907. <
1232 1 6 62 1 7. 0. 907. <
1233 3 1 -63 -7 552. -2268. 1360. <
1233 2 -7 63 1 552. -2268. 1360. <
1233 1 7 63 -1 552. -2268. 1360. <
1234 3 -1 -63 5 765. 454. 1361. <
1234 2 5 63 -1 765. 454. 1361. <
1234 1 -5 63 1 765. 454. 1361. <
1235 3 1 -63 -5 745. -454. 1361. <
1235 2 -5 63 1 745. -454. 1361. <
1235 1 5 63 -1 745. -454. 1361. <
1236 3 -1 -63 3 1065. 907. 907. <
1236 2 3 63 -1 1065. 907. 907. <
1236 1 -3 63 1 1065. 907. 907. <
1237 3 1 -63 -3 1014. 1361. 907. <
1237 2 -3 63 1 1014. 1361. 907. <
1237 1 3 63 -1 1014. 1361. 907. <
1238 3 -1 -63 1 1549. 0. 908. <
1238 2 1 63 -1 1549. 0. 908. <
1238 1 -1 63 1 1549. 0. 908. <
1239 3 1 -63 -1 1508. 907. 1361. <
1239 2 -1 63 1 1508. 907. 1361. <
1239 1 1 63 -1 1508. 907. 1361. <
1240 3 -1 -63 -1 1527. 907. 908. <
1240 2 -1 63 -1 1527. 907. 908. <
1240 1 1 63 1 1527. 907. 908. <
1241 3 1 -63 1 1530. 0. 1815. <
1241 2 1 63 1 1530. 0. 1815. <
1241 1 -1 63 -1 1530. 0. 1815. <
1242 3 -1 -63 -3 1029. 2722. 906. o
1242 2 -3 63 -1 1029. 2722. 906. o
1242 1 3 63 1 1029. 2722. 906. o
1243 3 1 -63 3 1050. 454. 907. <
1243 2 3 63 1 1050. 454. 907. <
1243 1 -3 63 -1 1050. 454. 907. <
1244 3 -1 -63 -5 747. 907. 907. <
1244 2 -5 63 -1 747. 907. 907. <
1244 1 5 63 1 747. 907. 907. <
1245 3 -1 -63 -7 554. 0. 907. <
1245 2 -7 63 -1 554. 0. 907. <
1245 1 7 63 1 554. 0. 907. <
1246 2 -6 64 1 7. 1815. 1361. <
1246 1 6 64 -1 7. 1815. 1361. <
1247 2 4 64 -1 166. 0. 907. <
1247 1 -4 64 1 166. 0. 907. <
1248 2 -4 64 1 166. 454. 1361. <
1248 1 4 64 -1 166. 454. 1361. <
1249 2 2 64 -1 24. 454. 907. <
1249 1 -2 64 1 24. 454. 907. <
1250 2 -2 64 1 24. 1361. 1361. <
1250 1 2 64 -1 24. 1361. 1361. <
1251 2 0 64 -1 852. 1815. 907. <
1251 1 0 64 1 852. 1815. 907. <
1252 2 0 64 1 852. -454. 1361. <
1252 1 0 64 -1 852. -454. 1361. <
1253 2 -2 64 -1 24. 454. 907. <
1253 1 2 64 1 24. 454. 907. <
1254 2 2 64 1 24. -454. 907. <
1254 1 -2 64 -1 24. -454. 907. <
1255 2 -4 64 -1 166. -907. 907. <
1255 1 4 64 1 166. -907. 907. <
1256 2 4 64 1 166. 907. 1361. <
1256 1 -4 64 -1 166. 907. 1361. <
1257 2 -6 64 -1 7. 0. 907. <
1257 1 6 64 1 7. 0. 907. <
1258 3 1 -65 -7 50. -2268. 1360. <
1258 2 -7 65 1 50. -2268. 1360. <
1258 1 7 65 -1 50. -2268. 1360. <
1259 3 -1 -65 5 40. 0. 907. <
1259 2 5 65 -1 40. 0. 907. <
1259 1 -5 65 1 40. 0. 907. <
1260 3 1 -65 -5 39. 0. 1361. <
1260 2 -5 65 1 39. 0. 1361. <
1260 1 5 65 -1 39. 0. 1361. <
1261 3 -1 -65 3 107. 454. 907. <
1261 2 3 65 -1 107. 454. 907. <
1261 1 -3 65 1 107. 454. 907. <
1262 3 1 -65 -3 100. 3176. 1360. o
1262 2 -3 65 1 100. 3176. 1360. o
1262 1 3 65 -1 100. 3176. 1360. o
1263 3 -1 -65 1 45. 1361. 907. <
1263 2 1 65 -1 45. 1361. 907. <
1263 1 -1 65 1 45. 1361. 907. <
1264 3 1 -65 -1 38. 2722. 1360. <
1264 2 -1 65 1 38. 2722. 1360. <
1264 1 1 65 -1 38. 2722. 1360. <
1265 3 -1 -65 -1 41. -454. 907. <
1265 2 -1 65 -1 41. -454. 907. <
1265 1 1 65 1 41. -454. 907. <
1266 3 1 -65 1 42. 907. 1361. <
1266 2 1 65 1 42. 907. 1361. <
1266 1 -1 65 -1 42. 907. 1361. <
1267 3 -1 -65 -3 102. 907. 907. <
1267 2 -3 65 -1 102. 907. 907. <
1267 1 3 65 1 102. 907. 907. <
1268 3 1 -65 3 105. 907. 907. <
1268 2 3 65 1 105. 907. 907. <
1268 1 -3 65 -1 105. 907. 907. <
1269 3 -1 -65 -5 38. 907. 907. <
1269 2 -5 65 -1 38. 907. 907. <
1269 1 5 65 1 38. 907. 907. <
1270 3 -1 -65 -7 50. 1815. 907. <
1270 2 -7 65 -1 50. 1815. 907. <
1270 1 7 65 1 50. 1815. 907. <
1271 2 -6 66 1 58. 1815. 1361. <
1271 1 6 66 -1 58. 1815. 1361. <
1272 2 4 66 -1 924. 0. 907. <
1272 1 -4 66 1 924. 0. 907. <
1273 2 -4 66 1 923. 3176. 1360. o
1273 1 4 66 -1 923. 3176. 1360. o
1274 2 2 66 -1 285. -907. 907. <
1274 1 -2 66 1 285. -907. 907. <
1275 2 -2 66 1 285. 1815. 1361. <
1275 1 2 66 -1 285. 1815. 1361. <
1276 2 0 66 -1 2819. 2268. 908. o
1276 1 0 66 1 2819. 2268. 908. o
1277 2 0 66 1 2819. 4537. 1360. o
1277 1 0 66 -1 2819. 4537. 1360. o
1278 2 -2 66 -1 285. -454. 907. <
1278 1 2 66 1 285. -454. 907. <
1279 2 2 66 1 285. 454. 907. <
1279 1 -2 66 -1 285. 454. 907. <
1280 2 -4 66 -1 923. 2722. 906. o
1280 1 4 66 1 923. 2722. 906. o
1281 2 4 66 1 924. 454. 907. <
1281 1 -4 66 -1 924. 454. 907. <
1282 2 -6 66 -1 58. 0. 907. <
1282 1 6 66 1 58. 0. 907. <
1283 3 1 -67 -7 123. 907. 907. <
1283 2 -7 67 1 123. 907. 907. <
1283 1 7 67 -1 123. 907. 907. <
1284 3 -1 -67 5 379. 0. 1361. <
1284 2 5 67 -1 379. 0. 1361. <
1284 1 -5 67 1 379. 0. 1361. <
1285 3 1 -67 -5 377. -454. 907. <
1285 2 -5 67 1 377. -454. 907. <
1285 1 5 67 -1 377. -454. 907. <
1286 3 -1 -67 3 597. -454. 907. <
1286 2 3 67 -1 597. -454. 907. <
1286 1 -3 67 1 597. -454. 907. <
1287 3 1 -67 -3 600. 3176. 1360. o
1287 2 -3 67 1 600. 3176. 1360. o
1287 1 3 67 -1 600. 3176. 1360. o
1288 3 -1 -67 1 581. -454. 907. <
1288 2 1 67 -1 581. -454. 907. <
1288 1 -1 67 1 581. -454. 907. <
1289 3 1 -67 -1 572. 1361. 1361. <
1289 2 -1 67 1 572. 1361. 1361. <
1289 1 1 67 -1 572. 1361. 1361. <
1290 3 -1 -67 -1 576. 1361. 907. <
1290 2 -1 67 -1 576. 1361. 907. <
1290 1 1 67 1 576. 1361. 907. <
1291 3 1 -67 1 577. 454. 1815. <
1291 2 1 67 1 577. 454. 1815. <
1291 1 -1 67 -1 577. 454. 1815. <
1292 3 -1 -67 -3 596. -907. 907. <
1292 2 -3 67 -1 596. -907. 907. <
1292 1 3 67 1 596. -907. 907. <
1293 3 1 -67 3 601. 907. 907. <
1293 2 3 67 1 601. 907. 907. <
1293 1 -3 67 -1 601. 907. 907. <
1294 3 -1 -67 -5 379. -454. 907. <
1294 2 -5 67 -1 379. -454. 907. <
1294 1 5 67 1 379. -454. 907. <
1295 3 1 -67 5 377. 454. 1815. <
1295 2 5 67 1 377. 454. 1815. <
1295 1 -5 67 -1 377. 454. 1815. <
1296 3 -1 -67 -7 120. 454. 907. <
1296 2 -7 67 -1 120. 454. 907. <
1296 1 7 67 1 120. 454. 907. <
1297 2 -6 68 1 61. -454. 1361. <
1297 1 6 68 -1 61. -454. 1361. <
1298 2 4 68 -1 1363. 1815. 907. <
1298 1 -4 68 1 1363. 1815. 907. <
1299 2 -4 68 1 1364. 454. 1361. <
1299 1 4 68 -1 1364. 454. 1361. <
1300 2 2 68 -1 44. 0. 907. <
1300 1 -2 68 1 44. 0. 907. <
1301 2 -2 68 1 44. 907. 1361. <
1301 1 2 68 -1 44. 907. 1361. <
1302 2 0 68 -1 7093. 9980. 900. o
1302 1 0 68 1 7093. 9980. 900. o
1303 2 0 68 1 7093. 9980. 1356. o
1303 1 0 68 -1 7093. 9980. 1356. o
1304 2 -2 68 -1 44. -907. 907. <
1304 1 2 68 1 44. -907. 907. <
1305 2 2 68 1 44. -454. 907. <
1305 1 -2 68 -1 44. -454. 907. <
1306 2 -4 68 -1 1364. 1815. 907. <
1306 1 4 68 1 1364. 1815. 907. <
1307 2 4 68 1 1363. 1815. 907. <
1307 1 -4 68 -1 1363. 1815. 907. <
1308 2 -6 68 -1 61. 0. 907. <
1308 1 6 68 1 61. 0. 907. <
1309 3 1 -69 -7 337. 454. 907. <
1309 2 -7 69 1 337. 454. 907. <
1309 1 7 69 -1 337. 454. 907. <
1310 3 -1 -69 5 1027. 454. 907. <
1310 2 5 69 -1 1027. 454. 907. <
1310 1 -5 69 1 1027. 454. 907. <
1311 3 1 -69 -5 1026. -1361. 1361. <
1311 2 -5 69 1 1026. -1361. 1361. <
1311 1 5 69 -1 1026. -1361. 1361. <
1312 3 -1 -69 3 1911. 2722. 907. o
1312 2 3 69 -1 1911. 2722. 907. o
1312 1 -3 69 1 1911. 2722. 907. o
1313 3 1 -69 -3 1899. 1815. 1361. <
1313 2 -3 69 1 1899. 1815. 1361. <
1313 1 3 69 -1 1899. 1815. 1361. <
1314 3 -1 -69 1 2250. 2722. 907. o
1314 2 1 69 -1 2250. 2722. 907. o
1314 1 -1 69 1 2250. 2722. 907. o
1315 3 1 -69 -1 2238. 1361. 1361. <
1315 2 -1 69 1 2238. 1361. 1361. <
1315 1 1 69 -1 2238. 1361. 1361. <
1316 3 -1 -69 -1 2244. 2722. 907. o
1316 2 -1 69 -1 2244. 2722. 907. o
1316 1 1 69 1 2244. 2722. 907. o
1317 3 1 -69 1 2244. 5444. 1358. o
1317 2 1 69 1 2244. 5444. 1358. o
1317 1 -1 69 -1 2244. 5444. 1358. o
1318 3 -1 -69 -3 1902. 907. 908. <
1318 2 -3 69 -1 1902. 907. 908. <
1318 1 3 69 1 1902. 907. 908. <
1319 3 1 -69 3 1909. 2268. 907. o
1319 2 3 69 1 1909. 2268. 907. o
1319 1 -3 69 -1 1909. 2268. 907. o
1320 3 -1 -69 -5 1024. 907. 907. <
1320 2 -5 69 -1 1024. 907. 907. <
1320 1 5 69 1 1024. 907. 907. <
1321 3 1 -69 5 1030. 1361. 1815. <
1321 2 5 69 1 1030. 1361. 1815. <
1321 1 -5 69 -1 1030. 1361. 1815. <
1322 3 -1 -69 -7 336. 907. 907. <
1322 2 -7 69 -1 336. 907. 907. <
1322 1 7 69 1 336. 907. 907. <
1323 2 -6 70 1 8. -454. 1361. <
1323 1 6 70 -1 8. -454. 1361. <
1324 2 4 70 -1 89. 907. 907. <
1324 1 -4 70 1 89. 907. 907. <
1325 2 -4 70 1 89. 1361. 1361. <
1325 1 4 70 -1 89. 1361. 1361. <
1326 2 2 70 -1 1. 454. 907. <
1326 1 -2 70 1 1. 454. 907. <
1327 2 -2 70 1 1. 2268. 1360. <
1327 1 2 70 -1 1. 2268. 1360. <
1328 2 0 70 -1 225. 907. 907. <
1328 1 0 70 1 225. 907. 907. <
1329 2 0 70 1 225. 0. 1361. <
1329 1 0 70 -1 225. 0. 1361. <
1330 2 -2 70 -1 1. 1815. 907. <
1330 1 2 70 1 1. 1815. 907. <
1331 2 2 70 1 1. 1361. 907. <
1331 1 -2 70 -1 1. 1361. 907. <
1332 2 -4 70 -1 89. 1815. 907. <
1332 1 4 70 1 89. 1815. 907. <
1333 2 4 70 1 89. 454. 1361. <
1333 1 -4 70 -1 89. 454. 1361. <
1334 2 -6 70 -1 8. 907. 907. <
1334 1 6 70 1 8. 907. 907. <
1335 3 -1 -71 5 1616. 907. 1361. <
1335 2 5 71 -1 1616. 907. 1361. <
1335 1 -5 71 1 1616. 907. 1361. <
1336 3 1 -71 -5 1616. -1361. 1361. <
1336 2 -5 71 1 1616. -1361. 1361. <
1336 1 5 71 -1 1616. -1361. 1361. <
1337 3 -1 -71 3 2451. 454. 908. <
1337 2 3 71 -1 2451. 454. 908. <
1337 1 -3 71 1 2451. 454. 908. <
1338 3 1 -71 -3 2437. -454. 1361. <
1338 2 -3 71 1 2437. -454. 1361. <
1338 1 3 71 -1 2437. -454. 1361. <
1339 3 -1 -71 1 2149. 1361. 908. <
1339 2 1 71 -1 2149. 1361. 908. <
1339 1 -1 71 1 2149. 1361. 908. <
1340 3 1 -71 -1 2129. 2722. 1361. <
1340 2 -1 71 1 2129. 2722. 1361. <
1340 1 1 71 -1 2129. 2722. 1361. <
1341 3 -1 -71 -1 2138. 1815. 907. <
1341 2 -1 71 -1 2138. 1815. 907. <
1341 1 1 71 1 2138. 1815. 907. <
1342 3 1 -71 1 2139. 907. 908. <
1342 2 1 71 1 2139. 907. 908. <
1342 1 -1 71 -1 2139. 907. 908. <
1343 3 -1 -71 -3 2438. 3629. 906. o
1343 2 -3 71 -1 2438. 3629. 906. o
1343 1 3 71 1 2438. 3629. 906. o
1344 3 1 -71 3 2450. 1815. 1361. <
1344 2 3 71 1 2450. 1815. 1361. <
1344 1 -3 71 -1 2450. 1815. 1361. <
1345 3 -1 -71 -5 1612. -907. 907. <
1345 2 -5 71 -1 1612. -907. 907. <
1345 1 5 71 1 1612. -907. 907. <
1346 3 1 -71 5 1620. 907. 1815. <
1346 2 5 71 1 1620. 907. 1815. <
1346 1 -5 71 -1 1620. 907. 1815. <
1347 2 -6 72 1 3. 907. 907. <
1347 1 6 72 -1 3. 907. 907. <
1348 2 4 72 -1 11. 0. 907. <
1348 1 -4 72 1 11. 0. 907. <
1349 2 -4 72 1 10. 0. 1361. <
1349 1 4 72 -1 10. 0. 1361. <
1350 2 2 72 -1 51. 907. 907. <
1350 1 -2 72 1 51. 907. 907. <
1351 2 -2 72 1 51. -454. 1361. <
1351 1 2 72 -1 51. -454. 1361. <
1352 2 0 72 -1 32. 0. 907. <
1352 1 0 72 1 32. 0. 907. <
1353 2 0 72 1 32. 0. 1361. <
1353 1 0 72 -1 32. 0. 1361. <
1354 2 -2 72 -1 51. 0. 907. <
1354 1 2 72 1 51. 0. 907. <
1355 2 2 72 1 51. 0. 907. <
1355 1 -2 72 -1 51. 0. 907. <
1356 2 -4 72 -1 10. 1361. 907. <
1356 1 4 72 1 10. 1361. 907. <
1357 2 4 72 1 11. 454. 907. <
1357 1 -4 72 -1 11. 454. 907. <
1358 2 -6 72 -1 3. 907. 907. <
1358 1 6 72 1 3. 907. 907. <
1359 3 -1 -73 5 13983. 14517. 1814. o
1359 2 5 73 -1 13983. 14517. 1814. o
1359 1 -5 73 1 13983. 14517. 1814. o
1360 3 1 -73 -5 14012. 8166. 1823. o
1360 2 -5 73 1 14012. 8166. 1823. o
1360 1 5 73 -1 14012. 8166. 1823. o
1361 3 -1 -73 3 43852. 48088. 1322. o
1361 2 3 73 -1 43852. 48088. 1322. o
1361 1 -3 73 1 43852. 48088. 1322. o
1362 3 1 -73 -3 43913. 23136. 2341. o
1362 2 -3 73 1 43913. 23136. 2341. o
1362 1 3 73 -1 43913. 23136. 2341. o
1363 3 -1 -73 1 83418. 111599. 1325. o
1363 2 1 73 -1 83418. 111599. 1325. o
1363 1 -1 73 1 83418. 111599. 1325. o
1364 3 1 -73 -1 83473. 77122. 2327. o
1364 2 -1 73 1 83473. 77122. 2327. o
1364 1 1 73 -1 83473. 77122. 2327. o
1365 3 -1 -73 -1 83447. 84380. 1803. o
1365 2 -1 73 -1 83447. 84380. 1803. o
1365 1 1 73 1 83447. 84380. 1803. o
1366 3 1 -73 1 83444. 102526. 1521. o
1366 2 1 73 1 83444. 102526. 1521. o
1366 1 -1 73 -1 83444. 102526. 1521. o
1367 3 -1 -73 -3 43896. 27219. 1464. o
1367 2 -3 73 -1 43896. 27219. 1464. o
1367 1 3 73 1 43896. 27219. 1464. o
1368 3 1 -73 3 43869. 56253. 1717. o
1368 2 3 73 1 43869. 56253. 1717. o
1368 1 -3 73 -1 43869. 56253. 1717. o
1369 3 -1 -73 -5 14003. 6351. 927. o
1369 2 -5 73 -1 14003. 6351. 927. o
1369 1 5 73 1 14003. 6351. 927. o
1370 3 1 -73 5 13992. 17239. 1807. o
1370 2 5 73 1 13992. 17239. 1807. o
1370 1 -5 73 -1 13992. 17239. 1807. o
1371 2 -6 74 1 2. 907. 907. <
1371 1 6 74 -1 2. 907. 907. <
1372 2 4 74 -1 1. 454. 1361. <
1372 1 -4 74 1 1. 454. 1361. <
1373 2 -4 74 1 1. 454. 907. <
1373 1 4 74 -1 1. 454. 907. <
1374 2 2 74 -1 31. 907. 907. <
1374 1 -2 74 1 31. 907. 907. <
1375 2 -2 74 1 31. -454. 1361. <
1375 1 2 74 -1 31. -454. 1361. <
1376 2 0 74 -1 4. 907. 907. <
1376 1 0 74 1 4. 907. 907. <
1377 2 0 74 1 4. 1361. 1361. <
1377 1 0 74 -1 4. 1361. 1361. <
1378 2 -2 74 -1 31. 454. 907. <
1378 1 2 74 1 31. 454. 907. <
1379 2 2 74 1 31. -907. 907. <
1379 1 -2 74 -1 31. -907. 907. <
1380 2 -4 74 -1 1. -454. 907. <
1380 1 4 74 1 1. -454. 907. <
1381 2 4 74 1 1. 0. 1361. <
1381 1 -4 74 -1 1. 0. 1361. <
1382 2 -6 74 -1 2. 907. 907. <
1382 1 6 74 1 2. 907. 907. <
1383 3 -1 -75 5 1099. 907. 1361. <
1383 2 5 75 -1 1099. 907. 1361. <
1383 1 -5 75 1 1099. 907. 1361. <
1384 3 1 -75 -5 1112. 1361. 1361. <
1384 2 -5 75 1 1112. 1361. 1361. <
1384 1 5 75 -1 1112. 1361. 1361. <
1385 3 -1 -75 3 3545. 907. 909. <
1385 2 3 75 -1 3545. 907. 909. <
1385 1 -3 75 1 3545. 907. 909. <
1386 3 1 -75 -3 3573. 2268. 1362. <
1386 2 -3 75 1 3573. 2268. 1362. <
1386 1 3 75 -1 3573. 2268. 1362. <
1387 3 -1 -75 1 7168. 8619. 904. o
1387 2 1 75 -1 7168. 8619. 904. o
1387 1 -1 75 1 7168. 8619. 904. o
1388 3 1 -75 -1 7196. 7258. 1361. o
1388 2 -1 75 1 7196. 7258. 1361. o
1388 1 1 75 -1 7196. 7258. 1361. o
1389 3 -1 -75 -1 7183. 6805. 908. o
1389 2 -1 75 -1 7183. 6805. 908. o
1389 1 1 75 1 7183. 6805. 908. o
1390 3 1 -75 1 7181. 8166. 905. o
1390 2 1 75 1 7181. 8166. 905. o
1390 1 -1 75 -1 7181. 8166. 905. o
1391 3 -1 -75 -3 3567. 907. 909. <
1391 2 -3 75 -1 3567. 907. 909. <
1391 1 3 75 1 3567. 907. 909. <
1392 3 1 -75 3 3551. 907. 1362. <
1392 2 3 75 1 3551. 907. 1362. <
1392 1 -3 75 -1 3551. 907. 1362. <
1393 3 -1 -75 -5 1109. 454. 907. <
1393 2 -5 75 -1 1109. 454. 907. <
1393 1 5 75 1 1109. 454. 907. <
1394 3 1 -75 5 1102. 454. 1815. <
1394 2 5 75 1 1102. 454. 1815. <
1394 1 -5 75 -1 1102. 454. 1815. <
1395 2 4 76 -1 1. 454. 1361. <
1395 1 -4 76 1 1. 454. 1361. <
1396 2 -4 76 1 1. 907. 1361. <
1396 1 4 76 -1 1. 907. 1361. <
1397 2 2 76 -1 55. -454. 907. <
1397 1 -2 76 1 55. -454. 907. <
1398 2 -2 76 1 55. 1815. 1361. <
1398 1 2 76 -1 55. 1815. 1361. <
1399 2 0 76 -1 2. 454. 907. <
1399 1 0 76 1 2. 454. 907. <
1400 2 0 76 1 2. 2268. 1360. <
1400 1 0 76 -1 2. 2268. 1360. <
1401 2 -2 76 -1 55. 907. 907. <
1401 1 2 76 1 55. 907. 907. <
1402 2 2 76 1 55. 0. 907. <
1402 1 -2 76 -1 55. 0. 907. <
1403 2 -4 76 -1 1. 454. 907. <
1403 1 4 76 1 1. 454. 907. <
1404 2 4 76 1 1. 2268. 1360. <
1404 1 -4 76 -1 1. 2268. 1360. <
1405 3 -1 -77 5 147. 907. 1361. <
1405 2 5 77 -1 147. 907. 1361. <
1405 1 -5 77 1 147. 907. 1361. <
1406 3 1 -77 -5 148. 454. 1361. <
1406 2 -5 77 1 148. 454. 1361. <
1406 1 5 77 -1 148. 454. 1361. <
1407 3 -1 -77 3 383. 1361. 907. <
1407 2 3 77 -1 383. 1361. 907. <
1407 1 -3 77 1 383. 1361. 907. <
1408 3 1 -77 -3 386. 454. 1361. <
1408 2 -3 77 1 386. 454. 1361. <
1408 1 3 77 -1 386. 454. 1361. <
1409 3 -1 -77 1 639. -454. 907. <
1409 2 1 77 -1 639. -454. 907. <
1409 1 -1 77 1 639. -454. 907. <
1410 3 1 -77 -1 642. 454. 1361. <
1410 2 -1 77 1 642. 454. 1361. <
1410 1 1 77 -1 642. 454. 1361. <
1411 3 -1 -77 -1 640. -454. 907. <
1411 2 -1 77 -1 640. -454. 907. <
1411 1 1 77 1 640. -454. 907. <
1412 3 1 -77 1 640. 454. 907. <
1412 2 1 77 1 640. 454. 907. <
1412 1 -1 77 -1 640. 454. 907. <
1413 3 -1 -77 -3 386. 907. 907. <
1413 2 -3 77 -1 386. 907. 907. <
1413 1 3 77 1 386. 907. 907. <
1414 3 1 -77 3 384. 0. 907. <
1414 2 3 77 1 384. 0. 907. <
1414 1 -3 77 -1 384. 0. 907. <
1415 3 -1 -77 -5 148. -907. 907. <
1415 2 -5 77 -1 148. -907. 907. <
1415 1 5 77 1 148. -907. 907. <
1416 3 1 -77 5 147. 907. 1815. <
1416 2 5 77 1 147. 907. 1815. <
1416 1 -5 77 -1 147. 907. 1815. <
1417 2 4 78 -1 10. -454. 1361. <
1417 1 -4 78 1 10. -454. 1361. <
1418 2 -4 78 1 10. 907. 1361. <
1418 1 4 78 -1 10. 907. 1361. <
1419 2 2 78 -1 114. 1815. 907. <
1419 1 -2 78 1 114. 1815. 907. <
1420 2 -2 78 1 115. -454. 907. <
1420 1 2 78 -1 115. -454. 907. <
1421 2 0 78 -1 17. 1815. 907. <
1421 1 0 78 1 17. 1815. 907. <
1422 2 0 78 1 17. 454. 907. <
1422 1 0 78 -1 17. 454. 907. <
1423 2 -2 78 -1 115. 907. 907. <
1423 1 2 78 1 115. 907. 907. <
1424 2 2 78 1 114. 907. 907. <
1424 1 -2 78 -1 114. 907. 907. <
1425 2 -4 78 -1 10. 907. 907. <
1425 1 4 78 1 10. 907. 907. <
1426 2 4 78 1 10. 907. 907. <
1426 1 -4 78 -1 10. 907. 907. <
1427 3 -1 -79 5 121. 0. 1361. <
1427 2 5 79 -1 121. 0. 1361. <
1427 1 -5 79 1 121. 0. 1361. <
1428 3 1 -79 -5 119. -1361. 907. <
1428 2 -5 79 1 119. -1361. 907. <
1428 1 5 79 -1 119. -1361. 907. <
1429 3 -1 -79 3 372. 907. 907. <
1429 2 3 79 -1 372. 907. 907. <
1429 1 -3 79 1 372. 907. 907. <
1430 3 1 -79 -3 373. 907. 1361. <
1430 2 -3 79 1 373. 907. 1361. <
1430 1 3 79 -1 373. 907. 1361. <
1431 3 -1 -79 1 865. 1815. 907. <
1431 2 1 79 -1 865. 1815. 907. <
1431 1 -1 79 1 865. 1815. 907. <
1432 3 1 -79 -1 865. 2722. 906. o
1432 2 -1 79 1 865. 2722. 906. o
1432 1 1 79 -1 865. 2722. 906. o
1433 3 -1 -79 -1 865. 1815. 907. <
1433 2 -1 79 -1 865. 1815. 907. <
1433 1 1 79 1 865. 1815. 907. <
1434 3 1 -79 1 865. 1815. 907. <
1434 2 1 79 1 865. 1815. 907. <
1434 1 -1 79 -1 865. 1815. 907. <
1435 3 -1 -79 -3 373. -454. 454. <
1435 2 -3 79 -1 373. -454. 454. <
1435 1 3 79 1 373. -454. 454. <
1436 3 1 -79 3 373. 1361. 907. <
1436 2 3 79 1 373. 1361. 907. <
1436 1 -3 79 -1 373. 1361. 907. <
1437 3 -1 -79 -5 120. 907. 907. <
1437 2 -5 79 -1 120. 907. 907. <
1437 1 5 79 1 120. 907. 907. <
1438 3 1 -79 5 119. 907. 1361. <
1438 2 5 79 1 119. 907. 1361. <
1438 1 -5 79 -1 119. 907. 1361. <
1439 2 4 80 -1 19. 907. 907. <
1439 1 -4 80 1 19. 907. 907. <
1440 2 -4 80 1 19. 0. 907. <
1440 1 4 80 -1 19. 0. 907. <
1441 2 2 80 -1 927. 907. 907. <
1441 1 -2 80 1 927. 907. 907. <
1442 2 -2 80 1 927. 1815. 907. <
1442 1 2 80 -1 927. 1815. 907. <
1443 2 0 80 -1 303. 1361. 907. <
1443 1 0 80 1 303. 1361. 907. <
1444 2 0 80 1 303. 454. 907. <
1444 1 0 80 -1 303. 454. 907. <
1445 2 -2 80 -1 927. 2722. 906. o
1445 1 2 80 1 927. 2722. 906. o
1446 2 2 80 1 927. 907. 907. <
1446 1 -2 80 -1 927. 907. 907. <
1447 2 -4 80 -1 19. 907. 907. <
1447 1 4 80 1 19. 907. 907. <
1448 2 4 80 1 19. 907. 907. <
1448 1 -4 80 -1 19. 907. 907. <
1449 3 -1 -81 5 280. 907. 1361. <
1449 2 5 81 -1 280. 907. 1361. <
1449 1 -5 81 1 280. 907. 1361. <
1450 3 1 -81 -5 281. 907. 453. <
1450 2 -5 81 1 281. 907. 453. <
1450 1 5 81 -1 281. 907. 453. <
1451 3 -1 -81 3 806. 907. 907. <
1451 2 3 81 -1 806. 907. 907. <
1451 1 -3 81 1 806. 907. 907. <
1452 3 1 -81 -3 809. 2722. 906. o
1452 2 -3 81 1 809. 2722. 906. o
1452 1 3 81 -1 809. 2722. 906. o
1453 3 -1 -81 1 1561. 907. 908. <
1453 2 1 81 -1 1561. 907. 908. <
1453 1 -1 81 1 1561. 907. 908. <
1454 3 1 -81 -1 1565. -454. 907. <
1454 2 -1 81 1 1565. -454. 907. <
1454 1 1 81 -1 1565. -454. 907. <
1455 3 -1 -81 -1 1563. 907. 908. <
1455 2 -1 81 -1 1563. 907. 908. <
1455 1 1 81 1 1563. 907. 908. <
1456 3 1 -81 1 1563. 907. 908. <
1456 2 1 81 1 1563. 907. 908. <
1456 1 -1 81 -1 1563. 907. 908. <
1457 3 -1 -81 -3 809. -1815. 907. <
1457 2 -3 81 -1 809. -1815. 907. <
1457 1 3 81 1 809. -1815. 907. <
1458 3 1 -81 3 806. 2722. 906. o
1458 2 3 81 1 806. 2722. 906. o
1458 1 -3 81 -1 806. 2722. 906. o
1459 3 -1 -81 -5 281. 0. 907. <
1459 2 -5 81 -1 281. 0. 907. <
1459 1 5 81 1 281. 0. 907. <
1460 3 1 -81 5 280. 454. 1815. <
1460 2 5 81 1 280. 454. 1815. <
1460 1 -5 81 -1 280. 454. 1815. <
1461 2 4 82 -1 1. 454. 907. <
1461 1 -4 82 1 1. 454. 907. <
1462 2 -4 82 1 1. 3629. 905. o
1462 1 4 82 -1 1. 3629. 905. o
1463 2 2 82 -1 5. -454. 907. <
1463 1 -2 82 1 5. -454. 907. <
1464 2 -2 82 1 5. -454. 454. <
1464 1 2 82 -1 5. -454. 454. <
1465 2 0 82 -1 0. 454. 907. <
1465 1 0 82 1 0. 454. 907. <
1466 2 0 82 1 0. 0. 454. <
1466 1 0 82 -1 0. 0. 454. <
1467 2 -2 82 -1 5. 454. 454. <
1467 1 2 82 1 5. 454. 454. <
1468 2 2 82 1 5. 907. 907. <
1468 1 -2 82 -1 5. 907. 907. <
1469 2 -4 82 -1 1. 907. 907. <
1469 1 4 82 1 1. 907. 907. <
1470 2 4 82 1 1. 454. 907. <
1470 1 -4 82 -1 1. 454. 907. <
1471 3 -1 -83 3 686. 454. 907. <
1471 2 3 83 -1 686. 454. 907. <
1471 1 -3 83 1 686. 454. 907. <
1472 3 1 -83 -3 689. 1815. 907. <
1472 2 -3 83 1 689. 1815. 907. <
1472 1 3 83 -1 689. 1815. 907. <
1473 3 -1 -83 1 1310. 907. 907. <
1473 2 1 83 -1 1310. 907. 907. <
1473 1 -1 83 1 1310. 907. 907. <
1474 3 1 -83 -1 1313. 454. 907. <
1474 2 -1 83 1 1313. 454. 907. <
1474 1 1 83 -1 1313. 454. 907. <
1475 3 -1 -83 -1 1312. 0. 907. <
1475 2 -1 83 -1 1312. 0. 907. <
1475 1 1 83 1 1312. 0. 907. <
1476 3 1 -83 1 1311. 1361. 907. <
1476 2 1 83 1 1311. 1361. 907. <
1476 1 -1 83 -1 1311. 1361. 907. <
1477 3 -1 -83 -3 689. 907. 907. <
1477 2 -3 83 -1 689. 907. 907. <
1477 1 3 83 1 689. 907. 907. <
1478 3 1 -83 3 687. 454. 907. <
1478 2 3 83 1 687. 454. 907. <
1478 1 -3 83 -1 687. 454. 907. <
1479 2 4 84 -1 1. 0. 907. <
1479 1 -4 84 1 1. 0. 907. <
1480 2 -4 84 1 1. 454. 907. <
1480 1 4 84 -1 1. 454. 907. <
1481 2 2 84 -1 3. -454. 454. <
1481 1 -2 84 1 3. -454. 454. <
1482 2 -2 84 1 3. 1815. 452. o
1482 1 2 84 -1 3. 1815. 452. o
1483 2 0 84 -1 7. -454. 454. <
1483 1 0 84 1 7. -454. 454. <
1484 2 0 84 1 7. 0. 454. <
1484 1 0 84 -1 7. 0. 454. <
1485 2 -2 84 -1 3. 454. 907. <
1485 1 2 84 1 3. 454. 907. <
1486 2 2 84 1 3. -454. 907. <
1486 1 -2 84 -1 3. -454. 907. <
1487 2 -4 84 -1 1. 0. 454. <
1487 1 4 84 1 1. 0. 454. <
1488 2 4 84 1 1. 454. 907. <
1488 1 -4 84 -1 1. 454. 907. <
1489 3 -1 -85 3 1550. 1815. 907. <
1489 2 3 85 -1 1550. 1815. 907. <
1489 1 -3 85 1 1550. 1815. 907. <
1490 3 1 -85 -3 1540. 2722. 907. o
1490 2 -3 85 1 1540. 2722. 907. o
1490 1 3 85 -1 1540. 2722. 907. o
1491 3 -1 -85 1 1287. 2722. 452. o
1491 2 1 85 -1 1287. 2722. 452. o
1491 1 -1 85 1 1287. 2722. 452. o
1492 3 1 -85 -1 1281. 4537. 904. o
1492 2 -1 85 1 1281. 4537. 904. o
1492 1 1 85 -1 1281. 4537. 904. o
1493 3 -1 -85 -1 1284. 907. 907. <
1493 2 -1 85 -1 1284. 907. 907. <
1493 1 1 85 1 1284. 907. 907. <
1494 3 1 -85 1 1284. 1815. 907. <
1494 2 1 85 1 1284. 1815. 907. <
1494 1 -1 85 -1 1284. 1815. 907. <
1495 3 -1 -85 -3 1543. 1815. 907. <
1495 2 -3 85 -1 1543. 1815. 907. <
1495 1 3 85 1 1543. 1815. 907. <
1496 3 1 -85 3 1546. 1815. 907. <
1496 2 3 85 1 1546. 1815. 907. <
1496 1 -3 85 -1 1546. 1815. 907. <
1497 2 2 86 -1 0. 907. 907. <
1497 1 -2 86 1 0. 907. 907. <
1498 2 -2 86 1 0. 907. 907. <
1498 1 2 86 -1 0. 907. 907. <
1499 2 0 86 -1 1. 0. 454. <
1499 1 0 86 1 1. 0. 454. <
1500 2 0 86 1 1. 907. 453. <
1500 1 0 86 -1 1. 907. 453. <
1501 2 -2 86 -1 0. -454. 454. <
1501 1 2 86 1 0. -454. 454. <
1502 2 2 86 1 0. 907. 907. <
1502 1 -2 86 -1 0. 907. 907. <
1503 3 -1 -87 3 206. 0. 907. <
1503 2 3 87 -1 206. 0. 907. <
1503 1 -3 87 1 206. 0. 907. <
1504 3 1 -87 -3 193. 907. 453. <
1504 2 -3 87 1 193. 907. 453. <
1504 1 3 87 -1 193. 907. 453. <
1505 3 -1 -87 1 509. 907. 907. <
1505 2 1 87 -1 509. 907. 907. <
1505 1 -1 87 1 509. 907. 907. <
1506 3 1 -87 -1 496. 0. 907. <
1506 2 -1 87 1 496. 0. 907. <
1506 1 1 87 -1 496. 0. 907. <
1507 3 -1 -87 -1 502. 1361. 907. <
1507 2 -1 87 -1 502. 1361. 907. <
1507 1 1 87 1 502. 1361. 907. <
1508 3 1 -87 1 503. 907. 907. <
1508 2 1 87 1 503. 907. 907. <
1508 1 -1 87 -1 503. 907. 907. <
1509 3 -1 -87 -3 196. 907. 453. <
1509 2 -3 87 -1 196. 907. 453. <
1509 1 3 87 1 196. 907. 453. <
1510 3 1 -87 3 203. 907. 907. <
1510 2 3 87 1 203. 907. 907. <
1510 1 -3 87 -1 203. 907. 907. <
1511 2 2 88 -1 1. 454. 907. <
1511 1 -2 88 1 1. 454. 907. <
1512 2 -2 88 1 1. 907. 453. <
1512 1 2 88 -1 1. 907. 453. <
1513 2 0 88 -1 3. -454. 454. <
1513 1 0 88 1 3. -454. 454. <
1514 2 0 88 1 3. -907. 453. <
1514 1 0 88 -1 3. -907. 453. <
1515 2 -2 88 -1 1. 454. 454. <
1515 1 2 88 1 1. 454. 454. <
1516 2 2 88 1 1. -454. 907. <
1516 1 -2 88 -1 1. -454. 907. <
1517 3 -1 -89 1 6. 1361. 453. o
1517 2 1 89 -1 6. 1361. 453. o
1517 1 -1 89 1 6. 1361. 453. o
1518 3 1 -89 -1 5. 907. 453. <
1518 2 -1 89 1 5. 907. 453. <
1518 1 1 89 -1 5. 907. 453. <
1519 3 -1 -89 -1 5. 907. 453. <
1519 2 -1 89 -1 5. 907. 453. <
1519 1 1 89 1 5. 907. 453. <
1520 3 1 -89 1 5. 0. 454. <
1520 2 1 89 1 5. 0. 454. <
1520 1 -1 89 -1 5. 0. 454. <
1521 2 2 90 -1 3. 454. 907. <
1521 1 -2 90 1 3. 454. 907. <
1522 2 -2 90 1 3. 907. 453. <
1522 1 2 90 -1 3. 907. 453. <
1523 2 0 90 -1 2. 907. 453. <
1523 1 0 90 1 2. 907. 453. <
1524 2 0 90 1 2. 907. 453. <
1524 1 0 90 -1 2. 907. 453. <
1525 2 -2 90 -1 3. 907. 907. <
1525 1 2 90 1 3. 907. 907. <
1526 2 2 90 1 3. 454. 907. <
1526 1 -2 90 -1 3. 454. 907. <
1527 3 -1 -91 1 25. 0. 907. <
1527 2 1 91 -1 25. 0. 907. <
1527 1 -1 91 1 25. 0. 907. <
1528 3 1 -91 -1 25. -454. 454. <
1528 2 -1 91 1 25. -454. 454. <
1528 1 1 91 -1 25. -454. 454. <
1529 3 -1 -91 -1 25. 454. 454. <
1529 2 -1 91 -1 25. 454. 454. <
1529 1 1 91 1 25. 454. 454. <
1530 3 1 -91 1 25. 454. 454. <
1530 2 1 91 1 25. 454. 454. <
1530 1 -1 91 -1 25. 454. 454. <
1531 2 0 92 -1 266. 1815. 452. o
1531 1 0 92 1 266. 1815. 452. o
1532 2 0 92 1 266. 907. 453. <
1532 1 0 92 -1 266. 907. 453. <
1533 3 2 0 -10 24508. 19961. 1829. o
1533 2 -10 0 2 24508. 19961. 1829. o
1533 1 10 0 -2 24508. 19961. 1829. o
1534 3 -2 0 8 6533. 8166. 4082. <
1534 2 8 0 -2 6533. 8166. 4082. <
1534 1 -8 0 2 6533. 8166. 4082. <
1535 3 2 0 -8 7377. 4990. 911. o
1535 2 -8 0 2 7377. 4990. 911. o
1535 1 8 0 -2 7377. 4990. 911. o
1536 3 2 0 -6 909870. 995774. 19310. o
1536 2 -6 0 2 909870. 995774. 19310. o
1536 1 6 0 -2 909870. 995774. 19310. o
1537 3 2 0 -4 66016. 65326. 1370. o
1537 2 -4 0 2 66016. 65326. 1370. o
1537 1 4 0 -2 66016. 65326. 1370. o
1538 3 -2 0 0 624369. 603362. 4473. o
1538 2 0 0 -2 624369. 603362. 4473. o
1538 1 0 0 2 624369. 603362. 4473. o
1539 3 2 0 0 630981. 611982. 4409. o
1539 2 0 0 2 630981. 611982. 4409. o
1539 1 0 0 -2 630981. 611982. 4409. o
1540 3 -2 0 -4 64123. 68956. 1296. o
1540 2 -4 0 -2 64123. 68956. 1296. o
1540 1 4 0 2 64123. 68956. 1296. o
1541 3 -2 0 -6 910709. 693186. 12470. o
1541 2 -6 0 -2 910709. 693186. 12470. o
1541 1 6 0 2 910709. 693186. 12470. o
1542 3 -2 0 -8 6880. 6805. 1361. o
1542 2 -8 0 -2 6880. 6805. 1361. o
1542 1 8 0 2 6880. 6805. 1361. o
1543 3 -2 0 -10 24738. 19961. 1381. o
1543 2 -10 0 -2 24738. 19961. 1381. o
1543 1 10 0 2 24738. 19961. 1381. o
1544 2 9 1 -2 18. 454. 1361. <
1544 1 -9 1 2 18. 454. 1361. <
1545 2 -9 1 2 18. 454. 454. <
1545 1 9 1 -2 18. 454. 454. <
1546 2 7 1 -2 35. 907. 4083. <
1546 1 -7 1 2 35. 907. 4083. <
1547 2 -7 1 2 35. 907. 453. <
1547 1 7 1 -2 35. 907. 453. <
1548 2 5 1 -2 277. 907. 1361. <
1548 1 -5 1 2 277. 907. 1361. <
1549 2 -5 1 2 278. 454. 454. <
1549 1 5 1 -2 278. 454. 454. <
1550 2 3 1 -2 2681. 3629. 906. o
1550 1 -3 1 2 2681. 3629. 906. o
1551 2 -3 1 2 2683. 3629. 906. o
1551 1 3 1 -2 2683. 3629. 906. o
1552 2 1 1 -2 27843. 28127. 905. o
1552 1 -1 1 2 27843. 28127. 905. o
1553 2 -1 1 2 27855. 28580. 901. o
1553 1 1 1 -2 27855. 28580. 901. o
1554 2 -1 1 -2 27855. 28127. 905. o
1554 1 1 1 2 27855. 28127. 905. o
1555 2 1 1 2 27843. 29034. 897. o
1555 1 -1 1 -2 27843. 29034. 897. o
1556 2 -3 1 -2 2683. 2722. 907. o
1556 1 3 1 2 2683. 2722. 907. o
1557 2 3 1 2 2681. 4083. 906. o
1557 1 -3 1 -2 2681. 4083. 906. o
1558 2 -5 1 -2 278. 454. 907. <
1558 1 5 1 2 278. 454. 907. <
1559 2 -7 1 -2 35. 2268. 1360. <
1559 1 7 1 2 35. 2268. 1360. <
1560 2 -9 1 -2 18. 0. 907. <
1560 1 9 1 2 18. 0. 907. <
1561 3 2 -2 -10 6955. 11341. 894. o
1561 2 -10 2 2 6955. 11341. 894. o
1561 1 10 2 -2 6955. 11341. 894. o
1562 3 -2 -2 8 1268. 4083. 2721. <
1562 2 8 2 -2 1268. 4083. 2721. <
1562 1 -8 2 2 1268. 4083. 2721. <
1563 3 2 -2 -8 1436. 2722. 452. o
1563 2 -8 2 2 1436. 2722. 452. o
1563 1 8 2 -2 1436. 2722. 452. o
1564 3 -2 -2 6 103359. 162409. 5987. o
1564 2 6 2 -2 103359. 162409. 5987. o
1564 1 -6 2 2 103359. 162409. 5987. o
1565 3 2 -2 -6 103312. 166492. 495. o
1565 2 -6 2 2 103312. 166492. 495. o
1565 1 6 2 -2 103312. 166492. 495. o
1566 3 -2 -2 4 4550. 5898. 1360. o
1566 2 4 2 -2 4550. 5898. 1360. o
1566 1 -4 2 2 4550. 5898. 1360. o
1567 3 2 -2 -4 5188. 6805. 904. o
1567 2 -4 2 2 5188. 6805. 904. o
1567 1 4 2 -2 5188. 6805. 904. o
1568 3 -2 -2 2 480868. 398763. 4879. o
1568 2 2 2 -2 480868. 398763. 4879. o
1568 1 -2 2 2 480868. 398763. 4879. o
1569 3 2 -2 -2 480145. 389690. 5040. o
1569 2 -2 2 2 480145. 389690. 5040. o
1569 1 2 2 -2 480145. 389690. 5040. o
1570 3 -2 -2 0 2752. 4537. 905. o
1570 2 0 2 -2 2752. 4537. 905. o
1570 1 0 2 2 2752. 4537. 905. o
1571 3 2 -2 0 2344. 4083. 906. o
1571 2 0 2 2 2344. 4083. 906. o
1571 1 0 2 -2 2344. 4083. 906. o
1572 3 -2 -2 -2 480486. 509909. 10177. o
1572 2 -2 2 -2 480486. 509909. 10177. o
1572 1 2 2 2 480486. 509909. 10177. o
1573 3 2 -2 2 480528. 493577. 2001. o
1573 2 2 2 2 480528. 493577. 2001. o
1573 1 -2 2 -2 480528. 493577. 2001. o
1574 3 -2 -2 -4 4892. 4537. 908. o
1574 2 -4 2 -2 4892. 4537. 908. o
1574 1 4 2 2 4892. 4537. 908. o
1575 3 2 -2 4 4846. 8619. 1811. o
1575 2 4 2 2 4846. 8619. 1811. o
1575 1 -4 2 -2 4846. 8619. 1811. o
1576 3 -2 -2 -6 103258. 127024. 3894. o
1576 2 -6 2 -2 103258. 127024. 3894. o
1576 1 6 2 2 103258. 127024. 3894. o
1577 3 -2 -2 -8 1362. 3176. 906. o
1577 2 -8 2 -2 1362. 3176. 906. o
1577 1 8 2 2 1362. 3176. 906. o
1578 3 -2 -2 -10 6958. 10434. 898. o
1578 2 -10 2 -2 6958. 10434. 898. o
1578 1 10 2 2 6958. 10434. 898. o
1579 2 9 3 -2 26. 907. 1815. <
1579 1 -9 3 2 26. 907. 1815. <
1580 2 -9 3 2 26. 907. 453. <
1580 1 9 3 -2 26. 907. 453. <
1581 2 7 3 -2 129. 1815. 4083. <
1581 1 -7 3 2 129. 1815. 4083. <
1582 2 -7 3 2 130. 454. 907. <
1582 1 7 3 -2 130. 454. 907. <
1583 2 5 3 -2 656. 907. 1361. <
1583 1 -5 3 2 656. 907. 1361. <
1584 2 -5 3 2 654. 907. 454. <
1584 1 5 3 -2 654. 907. 454. <
1585 2 3 3 -2 5918. 5898. 907. o
1585 1 -3 3 2 5918. 5898. 907. o
1586 2 -3 3 2 5921. 5898. 454. o
1586 1 3 3 -2 5921. 5898. 454. o
1587 2 1 3 -2 32929. 34478. 892. o
1587 1 -1 3 2 32929. 34478. 892. o
1588 2 -1 3 2 32947. 30395. 930. o
1588 1 1 3 -2 32947. 30395. 930. o
1589 2 -1 3 -2 32947. 34478. 892. o
1589 1 1 3 2 32947. 34478. 892. o
1590 2 1 3 2 32929. 34478. 892. o
1590 1 -1 3 -2 32929. 34478. 892. o
1591 2 -3 3 -2 5921. 5444. 908. o
1591 1 3 3 2 5921. 5444. 908. o
1592 2 3 3 2 5918. 6805. 906. o
1592 1 -3 3 -2 5918. 6805. 906. o
1593 2 -5 3 -2 654. 907. 907. <
1593 1 5 3 2 654. 907. 907. <
1594 2 -7 3 -2 130. 454. 1815. <
1594 1 7 3 2 130. 454. 1815. <
1595 2 -9 3 -2 26. 454. 454. <
1595 1 9 3 2 26. 454. 454. <
1596 3 2 -4 -10 3721. 3176. 908. o
1596 2 -10 4 2 3721. 3176. 908. o
1596 1 10 4 -2 3721. 3176. 908. o
1597 3 -2 -4 8 444. 2722. 2722. <
1597 2 8 4 -2 444. 2722. 2722. <
1597 1 -8 4 2 444. 2722. 2722. <
1598 3 2 -4 -8 443. 0. 454. <
1598 2 -8 4 2 443. 0. 454. <
1598 1 8 4 -2 443. 0. 454. <
1599 3 -2 -4 6 43358. 39922. 2736. o
1599 2 6 4 -2 43358. 39922. 2736. o
1599 1 -6 4 2 43358. 39922. 2736. o
1600 3 2 -4 -6 43415. 58068. 638. o
1600 2 -6 4 2 43415. 58068. 638. o
1600 1 6 4 -2 43415. 58068. 638. o
1601 3 -2 -4 4 875. 454. 1361. <
1601 2 4 4 -2 875. 454. 1361. <
1601 1 -4 4 2 875. 454. 1361. <
1602 3 2 -4 -4 790. 454. 454. <
1602 2 -4 4 2 790. 454. 454. <
1602 1 4 4 -2 790. 454. 454. <
1603 3 -2 -4 2 327210. 332076. 2071. o
1603 2 2 4 -2 327210. 332076. 2071. o
1603 1 -2 4 2 327210. 332076. 2071. o
1604 3 2 -4 -2 327227. 317559. 2224. o
1604 2 -2 4 2 327227. 317559. 2224. o
1604 1 2 4 -2 327227. 317559. 2224. o
1605 3 -2 -4 0 4333. 4083. 908. o
1605 2 0 4 -2 4333. 4083. 908. o
1605 1 0 4 2 4333. 4083. 908. o
1606 3 2 -4 0 3963. 4537. 907. o
1606 2 0 4 2 3963. 4537. 907. o
1606 1 0 4 -2 3963. 4537. 907. o
1607 3 -2 -4 -2 327219. 347500. 1208. o
1607 2 -2 4 -2 327219. 347500. 1208. o
1607 1 2 4 2 327219. 347500. 1208. o
1608 3 2 -4 2 327218. 336159. 1886. o
1608 2 2 4 2 327218. 336159. 1886. o
1608 1 -2 4 -2 327218. 336159. 1886. o
1609 3 -2 -4 -4 777. 907. 907. <
1609 2 -4 4 -2 777. 907. 907. <
1609 1 4 4 2 777. 907. 907. <
1610 3 2 -4 4 888. 1361. 907. <
1610 2 4 4 2 888. 1361. 907. <
1610 1 -4 4 -2 888. 1361. 907. <
1611 3 -2 -4 -6 43458. 45366. 3168. o
1611 2 -6 4 -2 43458. 45366. 3168. o
1611 1 6 4 2 43458. 45366. 3168. o
1612 3 -2 -4 -8 414. 454. 907. <
1612 2 -8 4 -2 414. 454. 907. <
1612 1 8 4 2 414. 454. 907. <
1613 3 -2 -4 -10 3737. 1815. 909. <
1613 2 -10 4 -2 3737. 1815. 909. <
1613 1 10 4 2 3737. 1815. 909. <
1614 2 9 5 -2 28. 1815. 1814. <
1614 1 -9 5 2 28. 1815. 1814. <
1615 2 -9 5 2 28. 454. 454. <
1615 1 9 5 -2 28. 454. 454. <
1616 2 7 5 -2 49. 2722. 4990. <
1616 1 -7 5 2 49. 2722. 4990. <
1617 2 -7 5 2 50. 0. 454. <
1617 1 7 5 -2 50. 0. 454. <
1618 2 5 5 -2 3520. 21322. 2236. o
1618 1 -5 5 2 3520. 21322. 2236. o
1619 2 -5 5 2 3533. 4083. 907. o
1619 1 5 5 -2 3533. 4083. 907. o
1620 2 3 5 -2 15605. 19961. 883. o
1620 1 -3 5 2 15605. 19961. 883. o
1621 2 -3 5 2 15643. 19961. 883. o
1621 1 3 5 -2 15643. 19961. 883. o
1622 2 1 5 -2 85552. 86195. 1350. o
1622 1 -1 5 2 85552. 86195. 1350. o
1623 2 -1 5 2 85649. 87556. 1328. o
1623 1 1 5 -2 85649. 87556. 1328. o
1624 2 -1 5 -2 85649. 83926. 1389. o
1624 1 1 5 2 85649. 83926. 1389. o
1625 2 1 5 2 85552. 88463. 1310. o
1625 1 -1 5 -2 85552. 88463. 1310. o
1626 2 -3 5 -2 15643. 19961. 883. o
1626 1 3 5 2 15643. 19961. 883. o
1627 2 3 5 2 15605. 18600. 892. o
1627 1 -3 5 -2 15605. 18600. 892. o
1628 2 -5 5 -2 3533. 10888. 889. o
1628 1 5 5 2 3533. 10888. 889. o
1629 2 -7 5 -2 50. 907. 1361. <
1629 1 7 5 2 50. 907. 1361. <
1630 2 -9 5 -2 28. 454. 454. <
1630 1 9 5 2 28. 454. 454. <
1631 3 2 -6 -10 2317. 1361. 908. <
1631 2 -10 6 2 2317. 1361. 908. <
1631 1 10 6 -2 2317. 1361. 908. <
1632 3 -2 -6 8 534. 0. 2722. <
1632 2 8 6 -2 534. 0. 2722. <
1632 1 -8 6 2 534. 0. 2722. <
1633 3 2 -6 -8 584. 907. 454. <
1633 2 -8 6 2 584. 907. 454. <
1633 1 8 6 -2 584. 907. 454. <
1634 3 -2 -6 6 35563. 29488. 2741. o
1634 2 6 6 -2 35563. 29488. 2741. o
1634 1 -6 6 2 35563. 29488. 2741. o
1635 3 2 -6 -6 35429. 42190. 824. o
1635 2 -6 6 2 35429. 42190. 824. o
1635 1 6 6 -2 35429. 42190. 824. o
1636 3 -2 -6 4 1972. 907. 908. <
1636 2 4 6 -2 1972. 907. 908. <
1636 1 -4 6 2 1972. 907. 908. <
1637 3 2 -6 -4 2185. 1361. 454. o
1637 2 -4 6 2 2185. 1361. 454. o
1637 1 4 6 -2 2185. 1361. 454. o
1638 3 -2 -6 2 295096. 282174. 2295. o
1638 2 2 6 -2 295096. 282174. 2295. o
1638 1 -2 6 2 295096. 282174. 2295. o
1639 3 2 -6 -2 295211. 282174. 2299. o
1639 2 -2 6 2 295211. 282174. 2299. o
1639 1 2 6 -2 295211. 282174. 2299. o
1640 3 -2 -6 0 1697. 4083. 905. o
1640 2 0 6 -2 1697. 4083. 905. o
1640 1 0 6 2 1697. 4083. 905. o
1641 3 2 -6 0 1738. 4083. 905. o
1641 2 0 6 2 1738. 4083. 905. o
1641 1 0 6 -2 1738. 4083. 905. o
1642 3 -2 -6 -2 295157. 276276. 2478. o
1642 2 -2 6 -2 295157. 276276. 2478. o
1642 1 2 6 2 295157. 276276. 2478. o
1643 3 2 -6 2 295150. 285349. 2579. o
1643 2 2 6 2 295150. 285349. 2579. o
1643 1 -2 6 -2 295150. 285349. 2579. o
1644 3 -2 -6 -4 2104. 1815. 454. o
1644 2 -4 6 -2 2104. 1815. 454. o
1644 1 4 6 2 2104. 1815. 454. o
1645 3 2 -6 4 2052. 1815. 907. <
1645 2 4 6 2 2052. 1815. 907. <
1645 1 -4 6 -2 2052. 1815. 907. <
1646 3 -2 -6 -6 35487. 28127. 2744. o
1646 2 -6 6 -2 35487. 28127. 2744. o
1646 1 6 6 2 35487. 28127. 2744. o
1647 3 -2 -6 -8 561. 907. 907. <
1647 2 -8 6 -2 561. 907. 907. <
1647 1 8 6 2 561. 907. 907. <
1648 3 -2 -6 -10 2330. 1361. 908. <
1648 2 -10 6 -2 2330. 1361. 908. <
1648 1 10 6 2 2330. 1361. 908. <
1649 2 9 7 -2 59. 907. 1815. <
1649 1 -9 7 2 59. 907. 1815. <
1650 2 -9 7 2 58. 454. 454. <
1650 1 9 7 -2 58. 454. 454. <
1651 2 7 7 -2 86. 2268. 4536. <
1651 1 -7 7 2 86. 2268. 4536. <
1652 2 -7 7 2 85. 907. 907. <
1652 1 7 7 -2 85. 907. 907. <
1653 2 5 7 -2 7307. 12249. 2262. o
1653 1 -5 7 2 7307. 12249. 2262. o
1654 2 -5 7 2 7293. 13156. 888. o
1654 1 5 7 -2 7293. 13156. 888. o
1655 2 3 7 -2 31338. 34024. 881. o
1655 1 -3 7 2 31338. 34024. 881. o
1656 2 -3 7 2 31290. 31302. 907. o
1656 1 3 7 -2 31290. 31302. 907. o
1657 2 1 7 -2 92543. 90731. 1393. o
1657 1 -1 7 2 92543. 90731. 1393. o
1658 2 -1 7 2 92452. 91185. 1384. o
1658 1 1 7 -2 92452. 91185. 1384. o
1659 2 -1 7 -2 92451. 85287. 1479. o
1659 1 1 7 2 92451. 85287. 1479. o
1660 2 1 7 2 92543. 93453. 1344. o
1660 1 -1 7 -2 92543. 93453. 1344. o
1661 2 -3 7 -2 31290. 32663. 894. o
1661 1 3 7 2 31290. 32663. 894. o
1662 2 3 7 2 31338. 30849. 1364. o
1662 1 -3 7 -2 31338. 30849. 1364. o
1663 2 -5 7 -2 7293. 10888. 897. o
1663 1 5 7 2 7293. 10888. 897. o
1664 2 -7 7 -2 85. 0. 1361. <
1664 1 7 7 2 85. 0. 1361. <
1665 2 -9 7 -2 58. 454. 907. <
1665 1 9 7 2 58. 454. 907. <
1666 3 2 -8 -10 3145. 907. 908. <
1666 2 -10 8 2 3145. 907. 908. <
1666 1 10 8 -2 3145. 907. 908. <
1667 3 -2 -8 8 609. 907. 2722. <
1667 2 8 8 -2 609. 907. 2722. <
1667 1 -8 8 2 609. 907. 2722. <
1668 3 2 -8 -8 586. 0. 454. <
1668 2 -8 8 2 586. 0. 454. <
1668 1 8 8 -2 586. 0. 454. <
1669 3 -2 -8 6 25734. 20868. 2733. o
1669 2 6 8 -2 25734. 20868. 2733. o
1669 1 -6 8 2 25734. 20868. 2733. o
1670 3 2 -8 -6 25808. 25405. 910. o
1670 2 -6 8 2 25808. 25405. 910. o
1670 1 6 8 -2 25808. 25405. 910. o
1671 3 -2 -8 4 1124. 454. 907. <
1671 2 4 8 -2 1124. 454. 907. <
1671 1 -4 8 2 1124. 454. 907. <
1672 3 2 -8 -4 1010. 907. 454. <
1672 2 -4 8 2 1010. 907. 454. <
1672 1 4 8 -2 1010. 907. 454. <
1673 3 -2 -8 2 215719. 221384. 1622. o
1673 2 2 8 -2 215719. 221384. 1622. o
1673 1 -2 8 2 215719. 221384. 1622. o
1674 3 2 -8 -2 216292. 210950. 1975. o
1674 2 -2 8 2 216292. 210950. 1975. o
1674 1 2 8 -2 216292. 210950. 1975. o
1675 3 -2 -8 0 1469. 907. 907. <
1675 2 0 8 -2 1469. 907. 907. <
1675 1 0 8 2 1469. 907. 907. <
1676 3 2 -8 0 1367. 907. 907. <
1676 2 0 8 2 1367. 907. 907. <
1676 1 0 8 -2 1367. 907. 907. <
1677 3 -2 -8 -2 216022. 218662. 1728. o
1677 2 -2 8 -2 216022. 218662. 1728. o
1677 1 2 8 2 216022. 218662. 1728. o
1678 3 2 -8 2 215989. 221384. 1631. o
1678 2 2 8 2 215989. 221384. 1631. o
1678 1 -2 8 -2 215989. 221384. 1631. o
1679 3 -2 -8 -4 1013. 454. 907. <
1679 2 -4 8 -2 1013. 454. 907. <
1679 1 4 8 2 1013. 454. 907. <
1680 3 2 -8 4 1121. 907. 1815. <
1680 2 4 8 2 1121. 907. 1815. <
1680 1 -4 8 -2 1121. 907. 1815. <
1681 3 -2 -8 -6 25832. 17693. 2738. o
1681 2 -6 8 -2 25832. 17693. 2738. o
1681 1 6 8 2 25832. 17693. 2738. o
1682 3 -2 -8 -8 572. 907. 907. <
1682 2 -8 8 -2 572. 907. 907. <
1682 1 8 8 2 572. 907. 907. <
1683 3 -2 -8 -10 3153. 1361. 908. <
1683 2 -10 8 -2 3153. 1361. 908. <
1683 1 10 8 2 3153. 1361. 908. <
1684 2 9 9 -2 46. 4083. 2267. <
1684 1 -9 9 2 46. 4083. 2267. <
1685 2 -9 9 2 45. 907. 907. <
1685 1 9 9 -2 45. 907. 907. <
1686 2 7 9 -2 47. 3176. 3629. <
1686 1 -7 9 2 47. 3176. 3629. <
1687 2 -7 9 2 48. 0. 454. <
1687 1 7 9 -2 48. 0. 454. <
1688 2 5 9 -2 732. 454. 1361. <
1688 1 -5 9 2 732. 454. 1361. <
1689 2 -5 9 2 732. 1361. 453. o
1689 1 5 9 -2 732. 1361. 453. o
1690 2 3 9 -2 4364. 4083. 908. o
1690 1 -3 9 2 4364. 4083. 908. o
1691 2 -3 9 2 4359. 4083. 908. o
1691 1 3 9 -2 4359. 4083. 908. o
1692 2 1 9 -2 14422. 13610. 911. o
1692 1 -1 9 2 14422. 13610. 911. o
1693 2 -1 9 2 14400. 14971. 905. o
1693 1 1 9 -2 14400. 14971. 905. o
1694 2 -1 9 -2 14400. 13610. 911. o
1694 1 1 9 2 14400. 13610. 911. o
1695 2 1 9 2 14422. 14517. 907. o
1695 1 -1 9 -2 14422. 14517. 907. o
1696 2 -3 9 -2 4359. 4083. 908. o
1696 1 3 9 2 4359. 4083. 908. o
1697 2 3 9 2 4364. 4537. 907. o
1697 1 -3 9 -2 4364. 4537. 907. o
1698 2 -5 9 -2 732. 907. 907. <
1698 1 5 9 2 732. 907. 907. <
1699 2 -7 9 -2 48. 0. 1361. <
1699 1 7 9 2 48. 0. 1361. <
1700 2 -9 9 -2 45. 454. 907. <
1700 1 9 9 2 45. 454. 907. <
1701 3 2 -10 -10 5171. 8619. 900. o
1701 2 -10 10 2 5171. 8619. 900. o
1701 1 10 10 -2 5171. 8619. 900. o
1702 3 -2 -10 8 473. 2268. 2268. <
1702 2 8 10 -2 473. 2268. 2268. <
1702 1 -8 10 2 473. 2268. 2268. <
1703 3 2 -10 -8 493. 2722. 906. o
1703 2 -8 10 2 493. 2722. 906. o
1703 1 8 10 -2 493. 2722. 906. o
1704 3 -2 -10 6 48407. 41736. 4554. o
1704 2 6 10 -2 48407. 41736. 4554. o
1704 1 -6 10 2 48407. 41736. 4554. o
1705 3 2 -10 -6 48108. 67595. 1103. o
1705 2 -6 10 2 48108. 67595. 1103. o
1705 1 6 10 -2 48108. 67595. 1103. o
1706 3 -2 -10 4 1566. 2722. 907. o
1706 2 4 10 -2 1566. 2722. 907. o
1706 1 -4 10 2 1566. 2722. 907. o
1707 3 2 -10 -4 1669. 2268. 907. o
1707 2 -4 10 2 1669. 2268. 907. o
1707 1 4 10 -2 1669. 2268. 907. o
1708 3 -2 -10 2 128447. 99351. 1883. o
1708 2 2 10 -2 128447. 99351. 1883. o
1708 1 -2 10 2 128447. 99351. 1883. o
1709 3 2 -10 -2 128263. 110238. 2100. o
1709 2 -2 10 2 128263. 110238. 2100. o
1709 1 2 10 -2 128263. 110238. 2100. o
1710 3 -2 -10 0 12342. 9980. 915. o
1710 2 0 10 -2 12342. 9980. 915. o
1710 1 0 10 2 12342. 9980. 915. o
1711 3 2 -10 0 12496. 11341. 911. o
1711 2 0 10 2 12496. 11341. 911. o
1711 1 0 10 -2 12496. 11341. 911. o
1712 3 -2 -10 -2 128350. 104341. 2175. o
1712 2 -2 10 -2 128350. 104341. 2175. o
1712 1 2 10 2 128350. 104341. 2175. o
1713 3 2 -10 2 128360. 107516. 2137. o
1713 2 2 10 2 128360. 107516. 2137. o
1713 1 -2 10 -2 128360. 107516. 2137. o
1714 3 -2 -10 -4 1683. 2722. 907. o
1714 2 -4 10 -2 1683. 2722. 907. o
1714 1 4 10 2 1683. 2722. 907. o
1715 3 2 -10 4 1552. 2722. 1814. <
1715 2 4 10 2 1552. 2722. 1814. <
1715 1 -4 10 -2 1552. 2722. 1814. <
1716 3 -2 -10 -6 48260. 78482. 5342. o
1716 2 -6 10 -2 48260. 78482. 5342. o
1716 1 6 10 2 48260. 78482. 5342. o
1717 3 -2 -10 -8 518. 3629. 905. o
1717 2 -8 10 -2 518. 3629. 905. o
1717 1 8 10 2 518. 3629. 905. o
1718 3 -2 -10 -10 5180. 8166. 901. o
1718 2 -10 10 -2 5180. 8166. 901. o
1718 1 10 10 2 5180. 8166. 901. o
1719 2 9 11 -2 58. 454. 2722. <
1719 1 -9 11 2 58. 454. 2722. <
1720 2 -9 11 2 58. 907. 907. <
1720 1 9 11 -2 58. 907. 907. <
1721 2 7 11 -2 93. 1361. 3629. <
1721 1 -7 11 2 93. 1361. 3629. <
1722 2 -7 11 2 93. 454. 907. <
1722 1 7 11 -2 93. 454. 907. <
1723 2 5 11 -2 251. 1815. 1361. <
1723 1 -5 11 2 251. 1815. 1361. <
1724 2 -5 11 2 253. 907. 453. <
1724 1 5 11 -2 253. 907. 453. <
1725 2 3 11 -2 2377. 2268. 907. o
1725 1 -3 11 2 2377. 2268. 907. o
1726 2 -3 11 2 2372. 2722. 907. o
1726 1 3 11 -2 2372. 2722. 907. o
1727 2 1 11 -2 8962. 7712. 910. o
1727 1 -1 11 2 8962. 7712. 910. o
1728 2 -1 11 2 8950. 8166. 909. o
1728 1 1 11 -2 8950. 8166. 909. o
1729 2 -1 11 -2 8951. 6805. 912. o
1729 1 1 11 2 8951. 6805. 912. o
1730 2 1 11 2 8962. 8166. 909. o
1730 1 -1 11 -2 8962. 8166. 909. o
1731 2 -3 11 -2 2372. 2722. 907. o
1731 1 3 11 2 2372. 2722. 907. o
1732 2 3 11 2 2377. 3629. 906. o
1732 1 -3 11 -2 2377. 3629. 906. o
1733 2 -5 11 -2 253. 454. 907. <
1733 1 5 11 2 253. 454. 907. <
1734 2 -7 11 -2 93. 454. 1361. <
1734 1 7 11 2 93. 454. 1361. <
1735 2 -9 11 -2 58. -454. 907. <
1735 1 9 11 2 58. -454. 907. <
1736 3 2 -12 -10 21777. 17239. 1378. o
1736 2 -10 12 2 21777. 17239. 1378. o
1736 1 10 12 -2 21777. 17239. 1378. o
1737 3 -2 -12 8 6282. 4990. 2269. o
1737 2 8 12 -2 6282. 4990. 2269. o
1737 1 -8 12 2 6282. 4990. 2269. o
1738 3 2 -12 -8 6953. 10888. 896. o
1738 2 -8 12 2 6953. 10888. 896. o
1738 1 8 12 -2 6953. 10888. 896. o
1739 3 2 -12 -6 578755. 612889. 2392. o
1739 2 -6 12 2 578755. 612889. 2392. o
1739 1 6 12 -2 578755. 612889. 2392. o
1740 3 -2 -12 4 52415. 50809. 1827. o
1740 2 4 12 -2 52415. 50809. 1827. o
1740 1 -4 12 2 52415. 50809. 1827. o
1741 3 2 -12 -4 52587. 49448. 1392. o
1741 2 -4 12 2 52587. 49448. 1392. o
1741 1 4 12 -2 52587. 49448. 1392. o
1742 3 -2 -12 0 1173360. 1226690. 24098. o
1742 2 0 12 -2 1173360. 1226690. 24098. o
1742 1 0 12 2 1173360. 1226690. 24098. o
1743 3 2 -12 0 1172060. 1310610. 24871. o
1743 2 0 12 2 1172060. 1310610. 24871. o
1743 1 0 12 -2 1172060. 1310610. 24871. o
1744 3 -2 -12 -4 52337. 54439. 1798. o
1744 2 -4 12 -2 52337. 54439. 1798. o
1744 1 4 12 2 52337. 54439. 1798. o
1745 3 -2 -12 -6 579591. 469987. 8713. o
1745 2 -6 12 -2 579591. 469987. 8713. o
1745 1 6 12 2 579591. 469987. 8713. o
1746 3 -2 -12 -8 6500. 7712. 1359. o
1746 2 -8 12 -2 6500. 7712. 1359. o
1746 1 8 12 2 6500. 7712. 1359. o
1747 3 -2 -12 -10 21951. 17239. 933. o
1747 2 -10 12 -2 21951. 17239. 933. o
1747 1 10 12 2 21951. 17239. 933. o
1748 2 9 13 -2 1. 4537. 2267. <
1748 1 -9 13 2 1. 4537. 2267. <
1749 2 -9 13 2 1. 0. 454. <
1749 1 9 13 -2 1. 0. 454. <
1750 2 7 13 -2 4. 2722. 4083. <
1750 1 -7 13 2 4. 2722. 4083. <
1751 2 -7 13 2 4. 454. 454. <
1751 1 7 13 -2 4. 454. 454. <
1752 2 5 13 -2 31. 907. 1361. <
1752 1 -5 13 2 31. 907. 1361. <
1753 2 -5 13 2 31. 454. 454. <
1753 1 5 13 -2 31. 454. 454. <
1754 2 3 13 -2 1886. 2268. 907. o
1754 1 -3 13 2 1886. 2268. 907. o
1755 2 -3 13 2 1887. 1815. 907. <
1755 1 3 13 -2 1887. 1815. 907. <
1756 2 1 13 -2 9580. 7712. 912. o
1756 1 -1 13 2 9580. 7712. 912. o
1757 2 -1 13 2 9573. 8166. 911. o
1757 1 1 13 -2 9573. 8166. 911. o
1758 2 -1 13 -2 9573. 8166. 911. o
1758 1 1 13 2 9573. 8166. 911. o
1759 2 1 13 2 9580. 8166. 911. o
1759 1 -1 13 -2 9580. 8166. 911. o
1760 2 -3 13 -2 1887. 1815. 1361. <
1760 1 3 13 2 1887. 1815. 1361. <
1761 2 3 13 2 1886. 2722. 907. o
1761 1 -3 13 -2 1886. 2722. 907. o
1762 2 -5 13 -2 31. 0. 907. <
1762 1 5 13 2 31. 0. 907. <
1763 2 -7 13 -2 4. 0. 1361. <
1763 1 7 13 2 4. 0. 1361. <
1764 2 -9 13 -2 1. 907. 453. <
1764 1 9 13 2 1. 907. 453. <
1765 3 2 -14 -10 6332. 9073. 901. o
1765 2 -10 14 2 6332. 9073. 901. o
1765 1 10 14 -2 6332. 9073. 901. o
1766 3 -2 -14 8 783. -907. 2268. <
1766 2 8 14 -2 783. -907. 2268. <
1766 1 -8 14 2 783. -907. 2268. <
1767 3 2 -14 -8 864. 1815. 907. <
1767 2 -8 14 2 864. 1815. 907. <
1767 1 8 14 -2 864. 1815. 907. <
1768 3 -2 -14 6 93217. 46726. 6917. o
1768 2 6 14 -2 93217. 46726. 6917. o
1768 1 -6 14 2 93217. 46726. 6917. o
1769 3 2 -14 -6 92765. 66234. 2491. o
1769 2 -6 14 2 92765. 66234. 2491. o
1769 1 6 14 -2 92765. 66234. 2491. o
1770 3 -2 -14 4 10296. 6351. 916. o
1770 2 4 14 -2 10296. 6351. 916. o
1770 1 -4 14 2 10296. 6351. 916. o
1771 3 2 -14 -4 10295. 6351. 916. o
1771 2 -4 14 2 10295. 6351. 916. o
1771 1 4 14 -2 10295. 6351. 916. o
1772 3 -2 -14 2 339744. 287618. 3691. o
1772 2 2 14 -2 339744. 287618. 3691. o
1772 1 -2 14 2 339744. 287618. 3691. o
1773 3 2 -14 -2 339147. 316652. 3006. o
1773 2 -2 14 2 339147. 316652. 3006. o
1773 1 2 14 -2 339147. 316652. 3006. o
1774 3 -2 -14 0 98421. 102073. 1287. o
1774 2 0 14 -2 98421. 102073. 1287. o
1774 1 0 14 2 98421. 102073. 1287. o
1775 3 2 -14 0 98372. 103887. 1246. o
1775 2 0 14 2 98372. 103887. 1246. o
1775 1 0 14 -2 98372. 103887. 1246. o
1776 3 -2 -14 -2 339428. 289886. 4264. o
1776 2 -2 14 -2 339428. 289886. 4264. o
1776 1 2 14 2 339428. 289886. 4264. o
1777 3 2 -14 2 339463. 283081. 3771. o
1777 2 2 14 2 339463. 283081. 3771. o
1777 1 -2 14 -2 339463. 283081. 3771. o
1778 3 -2 -14 -4 10339. 6351. 916. o
1778 2 -4 14 -2 10339. 6351. 916. o
1778 1 4 14 2 10339. 6351. 916. o
1779 3 -2 -14 -6 92977. 103887. 4931. o
1779 2 -6 14 -2 92977. 103887. 4931. o
1779 1 6 14 2 92977. 103887. 4931. o
1780 3 -2 -14 -8 851. 3176. 1360. o
1780 2 -8 14 -2 851. 3176. 1360. o
1780 1 8 14 2 851. 3176. 1360. o
1781 3 -2 -14 -10 6352. 9980. 898. o
1781 2 -10 14 -2 6352. 9980. 898. o
1781 1 10 14 2 6352. 9980. 898. o
1782 2 9 15 -2 37. 1361. 2268. <
1782 1 -9 15 2 37. 1361. 2268. <
1783 2 -9 15 2 37. 0. 907. <
1783 1 9 15 -2 37. 0. 907. <
1784 2 7 15 -2 170. -907. 4083. <
1784 1 -7 15 2 170. -907. 4083. <
1785 2 -7 15 2 170. 454. 454. <
1785 1 7 15 -2 170. 454. 454. <
1786 2 5 15 -2 114. 1361. 1361. <
1786 1 -5 15 2 114. 1361. 1361. <
1787 2 -5 15 2 113. 454. 907. <
1787 1 5 15 -2 113. 454. 907. <
1788 2 3 15 -2 5080. 4990. 907. o
1788 1 -3 15 2 5080. 4990. 907. o
1789 2 -3 15 2 5083. 4537. 908. o
1789 1 3 15 -2 5083. 4537. 908. o
1790 2 1 15 -2 12322. 11795. 909. o
1790 1 -1 15 2 12322. 11795. 909. o
1791 2 -1 15 2 12320. 11341. 911. o
1791 1 1 15 -2 12320. 11341. 911. o
1792 2 -1 15 -2 12320. 10888. 912. o
1792 1 1 15 2 12320. 10888. 912. o
1793 2 1 15 2 12322. 12702. 906. o
1793 1 -1 15 -2 12322. 12702. 906. o
1794 2 -3 15 -2 5083. 4083. 1362. o
1794 1 3 15 2 5083. 4083. 1362. o
1795 2 3 15 2 5080. 5444. 907. o
1795 1 -3 15 -2 5080. 5444. 907. o
1796 2 -5 15 -2 113. 454. 907. <
1796 1 5 15 2 113. 454. 907. <
1797 2 -7 15 -2 170. -454. 1361. <
1797 1 7 15 2 170. -454. 1361. <
1798 2 -9 15 -2 37. 454. 907. <
1798 1 9 15 2 37. 454. 907. <
1799 3 2 -16 -10 2788. 907. 908. <
1799 2 -10 16 2 2788. 907. 908. <
1799 1 10 16 -2 2788. 907. 908. <
1800 3 -2 -16 8 213. -907. 2268. <
1800 2 8 16 -2 213. -907. 2268. <
1800 1 -8 16 2 213. -907. 2268. <
1801 3 2 -16 -8 235. -454. 907. <
1801 2 -8 16 2 235. -454. 907. <
1801 1 8 16 -2 235. -454. 907. <
1802 3 -2 -16 6 29511. 14517. 2750. o
1802 2 6 16 -2 29511. 14517. 2750. o
1802 1 -6 16 2 29511. 14517. 2750. o
1803 3 2 -16 -6 29509. 20414. 1402. o
1803 2 -6 16 2 29509. 20414. 1402. o
1803 1 6 16 -2 29509. 20414. 1402. o
1804 3 -2 -16 4 3530. 907. 909. <
1804 2 4 16 -2 3530. 907. 909. <
1804 1 -4 16 2 3530. 907. 909. <
1805 3 2 -16 -4 3375. 1815. 908. <
1805 2 -4 16 2 3375. 1815. 908. <
1805 1 4 16 -2 3375. 1815. 908. <
1806 3 -2 -16 2 171026. 161955. 2023. o
1806 2 2 16 -2 171026. 161955. 2023. o
1806 1 -2 16 2 171026. 161955. 2023. o
1807 3 2 -16 -2 170744. 159233. 2072. o
1807 2 -2 16 2 170744. 159233. 2072. o
1807 1 2 16 -2 170744. 159233. 2072. o
1808 3 -2 -16 0 20051. 19961. 908. o
1808 2 0 16 -2 20051. 19961. 908. o
1808 1 0 16 2 20051. 19961. 908. o
1809 3 2 -16 0 19619. 19961. 905. o
1809 2 0 16 2 19619. 19961. 905. o
1809 1 0 16 -2 19619. 19961. 905. o
1810 3 -2 -16 -2 170877. 125663. 2922. o
1810 2 -2 16 -2 170877. 125663. 2922. o
1810 1 2 16 2 170877. 125663. 2922. o
1811 3 2 -16 2 170893. 168306. 1878. o
1811 2 2 16 2 170893. 168306. 1878. o
1811 1 -2 16 -2 170893. 168306. 1878. o
1812 3 -2 -16 -4 3371. 2722. 908. o
1812 2 -4 16 -2 3371. 2722. 908. o
1812 1 4 16 2 3371. 2722. 908. o
1813 3 2 -16 4 3534. 1815. 1815. <
1813 2 4 16 2 3534. 1815. 1815. <
1813 1 -4 16 -2 3534. 1815. 1815. <
1814 3 -2 -16 -6 29539. 20414. 3645. o
1814 2 -6 16 -2 29539. 20414. 3645. o
1814 1 6 16 2 29539. 20414. 3645. o
1815 3 -2 -16 -8 198. 0. 907. <
1815 2 -8 16 -2 198. 0. 907. <
1815 1 8 16 2 198. 0. 907. <
1816 3 -2 -16 -10 2802. 907. 908. <
1816 2 -10 16 -2 2802. 907. 908. <
1816 1 10 16 2 2802. 907. 908. <
1817 2 9 17 -2 68. 2722. 2268. <
1817 1 -9 17 2 68. 2722. 2268. <
1818 2 -9 17 2 69. 454. 907. <
1818 1 9 17 -2 69. 454. 907. <
1819 2 7 17 -2 575. 6805. 4535. <
1819 1 -7 17 2 575. 6805. 4535. <
1820 2 -7 17 2 571. 4990. 903. o
1820 1 7 17 -2 571. 4990. 903. o
1821 2 5 17 -2 465. -907. 1361. <
1821 1 -5 17 2 465. -907. 1361. <
1822 2 -5 17 2 463. 0. 907. <
1822 1 5 17 -2 463. 0. 907. <
1823 2 3 17 -2 18573. 33117. 1753. o
1823 1 -3 17 2 18573. 33117. 1753. o
1824 2 -3 17 2 18540. 29034. 1775. o
1824 1 3 17 -2 18540. 29034. 1775. o
1825 2 1 17 -2 25432. 22683. 926. o
1825 1 -1 17 2 25432. 22683. 926. o
1826 2 -1 17 2 25414. 24497. 914. o
1826 1 1 17 -2 25414. 24497. 914. o
1827 2 -1 17 -2 25414. 22229. 929. o
1827 1 1 17 2 25414. 22229. 929. o
1828 2 1 17 2 25432. 25858. 904. o
1828 1 -1 17 -2 25432. 25858. 904. o
1829 2 -3 17 -2 18541. 29034. 1307. o
1829 1 3 17 2 18541. 29034. 1307. o
1830 2 3 17 2 18573. 30395. 1768. o
1830 1 -3 17 -2 18573. 30395. 1768. o
1831 2 -5 17 -2 463. 0. 1361. <
1831 1 5 17 2 463. 0. 1361. <
1832 2 -7 17 -2 571. 4537. 1358. o
1832 1 7 17 2 571. 4537. 1358. o
1833 2 -9 17 -2 69. 454. 907. <
1833 1 9 17 2 69. 454. 907. <
1834 3 2 -18 -10 1530. 907. 908. <
1834 2 -10 18 2 1530. 907. 908. <
1834 1 10 18 -2 1530. 907. 908. <
1835 3 -2 -18 8 412. 1815. 1814. <
1835 2 8 18 -2 412. 1815. 1814. <
1835 1 -8 18 2 412. 1815. 1814. <
1836 3 2 -18 -8 459. 454. 454. <
1836 2 -8 18 2 459. 454. 454. <
1836 1 8 18 -2 459. 454. 454. <
1837 3 -2 -18 6 21102. 12702. 2735. o
1837 2 6 18 -2 21102. 12702. 2735. o
1837 1 -6 18 2 21102. 12702. 2735. o
1838 3 2 -18 -6 21039. 21776. 1358. o
1838 2 -6 18 2 21039. 21776. 1358. o
1838 1 6 18 -2 21039. 21776. 1358. o
1839 3 -2 -18 4 945. 907. 907. <
1839 2 4 18 -2 945. 907. 907. <
1839 1 -4 18 2 945. 907. 907. <
1840 3 2 -18 -4 1134. 907. 907. <
1840 2 -4 18 2 1134. 907. 907. <
1840 1 4 18 -2 1134. 907. 907. <
1841 3 -2 -18 2 119034. 114775. 1886. o
1841 2 2 18 -2 119034. 114775. 1886. o
1841 1 -2 18 2 119034. 114775. 1886. o
1842 3 2 -18 -2 118777. 117497. 1390. o
1842 2 -2 18 2 118777. 117497. 1390. o
1842 1 2 18 -2 118777. 117497. 1390. o
1843 3 -2 -18 0 1510. 2722. 906. o
1843 2 0 18 -2 1510. 2722. 906. o
1843 1 0 18 2 1510. 2722. 906. o
1844 3 2 -18 0 1496. 2722. 906. o
1844 2 0 18 2 1496. 2722. 906. o
1844 1 0 18 -2 1496. 2722. 906. o
1845 3 -2 -18 -2 118898. 106155. 2428. o
1845 2 -2 18 -2 118898. 106155. 2428. o
1845 1 2 18 2 118898. 106155. 2428. o
1846 3 2 -18 2 118913. 112960. 1913. o
1846 2 2 18 2 118913. 112960. 1913. o
1846 1 -2 18 -2 118913. 112960. 1913. o
1847 3 -2 -18 -4 1048. 0. 907. <
1847 2 -4 18 -2 1048. 0. 907. <
1847 1 4 18 2 1048. 0. 907. <
1848 3 2 -18 4 1030. 0. 1815. <
1848 2 4 18 2 1030. 0. 1815. <
1848 1 -4 18 -2 1030. 0. 1815. <
1849 3 -2 -18 -6 21045. 17693. 2728. o
1849 2 -6 18 -2 21045. 17693. 2728. o
1849 1 6 18 2 21045. 17693. 2728. o
1850 3 -2 -18 -8 436. 1361. 907. <
1850 2 -8 18 -2 436. 1361. 907. <
1850 1 8 18 2 436. 1361. 907. <
1851 3 -2 -18 -10 1536. 907. 908. <
1851 2 -10 18 -2 1536. 907. 908. <
1851 1 10 18 2 1536. 907. 908. <
1852 2 9 19 -2 89. -454. 2268. <
1852 1 -9 19 2 89. -454. 2268. <
1853 2 -9 19 2 88. 454. 907. <
1853 1 9 19 -2 88. 454. 907. <
1854 2 7 19 -2 1440. 3176. 4536. <
1854 1 -7 19 2 1440. 3176. 4536. <
1855 2 -7 19 2 1445. 3629. 905. o
1855 1 7 19 -2 1445. 3629. 905. o
1856 2 5 19 -2 857. -907. 1361. <
1856 1 -5 19 2 857. -907. 1361. <
1857 2 -5 19 2 860. 907. 907. <
1857 1 5 19 -2 860. 907. 907. <
1858 2 3 19 -2 54097. 61697. 2215. o
1858 1 -3 19 2 54097. 61697. 2215. o
1859 2 -3 19 2 54139. 53531. 1819. o
1859 1 3 19 -2 54139. 53531. 1819. o
1860 2 1 19 -2 101896. 101165. 1375. o
1860 1 -1 19 2 101896. 101165. 1375. o
1861 2 -1 19 2 101933. 104341. 1311. o
1861 1 1 19 -2 101933. 104341. 1311. o
1862 2 -1 19 -2 101933. 103887. 1321. o
1862 1 1 19 2 101933. 103887. 1321. o
1863 2 1 19 2 101896. 105248. 1291. o
1863 1 -1 19 -2 101896. 105248. 1291. o
1864 2 -3 19 -2 54139. 50356. 1399. o
1864 1 3 19 2 54139. 50356. 1399. o
1865 2 3 19 2 54097. 54439. 2266. o
1865 1 -3 19 -2 54097. 54439. 2266. o
1866 2 -5 19 -2 860. 907. 1361. <
1866 1 5 19 2 860. 907. 1361. <
1867 2 -7 19 -2 1445. 2268. 1361. <
1867 1 7 19 2 1445. 2268. 1361. <
1868 2 -9 19 -2 88. 907. 907. <
1868 1 9 19 2 88. 907. 907. <
1869 3 2 -20 -10 1890. 0. 908. <
1869 2 -10 20 2 1890. 0. 908. <
1869 1 10 20 -2 1890. 0. 908. <
1870 3 -2 -20 8 715. 907. 2722. <
1870 2 8 20 -2 715. 907. 2722. <
1870 1 -8 20 2 715. 907. 2722. <
1871 3 2 -20 -8 689. 454. 907. <
1871 2 -8 20 2 689. 454. 907. <
1871 1 8 20 -2 689. 454. 907. <
1872 3 -2 -20 6 14691. 10434. 2727. o
1872 2 6 20 -2 14691. 10434. 2727. o
1872 1 -6 20 2 14691. 10434. 2727. o
1873 3 2 -20 -6 14775. 11795. 918. o
1873 2 -6 20 2 14775. 11795. 918. o
1873 1 6 20 -2 14775. 11795. 918. o
1874 3 -2 -20 4 4370. 3176. 909. o
1874 2 4 20 -2 4370. 3176. 909. o
1874 1 -4 20 2 4370. 3176. 909. o
1875 3 2 -20 -4 4282. 3629. 908. o
1875 2 -4 20 2 4282. 3629. 908. o
1875 1 4 20 -2 4282. 3629. 908. o
1876 3 -2 -20 2 64611. 59429. 1422. o
1876 2 2 20 -2 64611. 59429. 1422. o
1876 1 -2 20 2 64611. 59429. 1422. o
1877 3 2 -20 -2 64873. 58068. 1021. o
1877 2 -2 20 2 64873. 58068. 1021. o
1877 1 2 20 -2 64873. 58068. 1021. o
1878 3 -2 -20 0 1073. 907. 907. <
1878 2 0 20 -2 1073. 907. 907. <
1878 1 0 20 2 1073. 907. 907. <
1879 3 2 -20 0 1032. 1361. 907. <
1879 2 0 20 2 1032. 1361. 907. <
1879 1 0 20 -2 1032. 1361. 907. <
1880 3 -2 -20 -2 64750. 58522. 1869. o
1880 2 -2 20 -2 64750. 58522. 1869. o
1880 1 2 20 2 64750. 58522. 1869. o
1881 3 2 -20 2 64734. 62604. 1387. o
1881 2 2 20 2 64734. 62604. 1387. o
1881 1 -2 20 -2 64734. 62604. 1387. o
1882 3 -2 -20 -4 4274. 3629. 908. o
1882 2 -4 20 -2 4274. 3629. 908. o
1882 1 4 20 2 4274. 3629. 908. o
1883 3 2 -20 4 4378. 2268. 1816. <
1883 2 4 20 2 4378. 2268. 1816. <
1883 1 -4 20 -2 4378. 2268. 1816. <
1884 3 -2 -20 -6 14757. 10434. 2274. o
1884 2 -6 20 -2 14757. 10434. 2274. o
1884 1 6 20 2 14757. 10434. 2274. o
1885 3 -2 -20 -8 685. 907. 907. <
1885 2 -8 20 -2 685. 907. 907. <
1885 1 8 20 2 685. 907. 907. <
1886 3 -2 -20 -10 1892. 454. 908. <
1886 2 -10 20 -2 1892. 454. 908. <
1886 1 10 20 2 1892. 454. 908. <
1887 2 9 21 -2 46. 2268. 2268. <
1887 1 -9 21 2 46. 2268. 2268. <
1888 2 -9 21 2 46. 454. 907. <
1888 1 9 21 -2 46. 454. 907. <
1889 2 7 21 -2 363. 2722. 4083. <
1889 1 -7 21 2 363. 2722. 4083. <
1890 2 -7 21 2 363. 1361. 907. <
1890 1 7 21 -2 363. 1361. 907. <
1891 2 5 21 -2 263. 1361. 1361. <
1891 1 -5 21 2 263. 1361. 1361. <
1892 2 -5 21 2 264. 454. 907. <
1892 1 5 21 -2 264. 454. 907. <
1893 2 3 21 -2 4733. 3629. 909. o
1893 1 -3 21 2 4733. 3629. 909. o
1894 2 -3 21 2 4731. 4537. 908. o
1894 1 3 21 -2 4731. 4537. 908. o
1895 2 1 21 -2 14950. 13610. 913. o
1895 1 -1 21 2 14950. 13610. 913. o
1896 2 -1 21 2 14954. 14971. 907. o
1896 1 1 21 -2 14954. 14971. 907. o
1897 2 -1 21 -2 14954. 14517. 909. o
1897 1 1 21 2 14954. 14517. 909. o
1898 2 1 21 2 14950. 15424. 905. o
1898 1 -1 21 -2 14950. 15424. 905. o
1899 2 -3 21 -2 4731. 3629. 909. o
1899 1 3 21 2 4731. 3629. 909. o
1900 2 3 21 2 4733. 4537. 1361. o
1900 1 -3 21 -2 4733. 4537. 1361. o
1901 2 -5 21 -2 264. -454. 1361. <
1901 1 5 21 2 264. -454. 1361. <
1902 2 -7 21 -2 363. 1361. 907. <
1902 1 7 21 2 363. 1361. 907. <
1903 2 -9 21 -2 46. 1361. 907. <
1903 1 9 21 2 46. 1361. 907. <
1904 3 2 -22 -10 2772. 4990. 1359. o
1904 2 -10 22 2 2772. 4990. 1359. o
1904 1 10 22 -2 2772. 4990. 1359. o
1905 3 -2 -22 8 481. 3176. 2721. <
1905 2 8 22 -2 481. 3176. 2721. <
1905 1 -8 22 2 481. 3176. 2721. <
1906 3 2 -22 -8 530. 2722. 906. o
1906 2 -8 22 2 530. 2722. 906. o
1906 1 8 22 -2 530. 2722. 906. o
1907 3 -2 -22 6 21675. 49902. 4929. o
1907 2 6 22 -2 21675. 49902. 4929. o
1907 1 -6 22 2 21675. 49902. 4929. o
1908 3 2 -22 -6 21694. 24951. 1346. o
1908 2 -6 22 2 21694. 24951. 1346. o
1908 1 6 22 -2 21694. 24951. 1346. o
1909 3 -2 -22 4 1076. 454. 907. <
1909 2 4 22 -2 1076. 454. 907. <
1909 1 -4 22 2 1076. 454. 907. <
1910 3 2 -22 -4 1194. 1361. 907. <
1910 2 -4 22 2 1194. 1361. 907. <
1910 1 4 22 -2 1194. 1361. 907. <
1911 3 -2 -22 2 7377. -1815. 911. <
1911 2 2 22 -2 7377. -1815. 911. <
1911 1 -2 22 2 7377. -1815. 911. <
1912 3 2 -22 -2 7216. -19054. 824. <
1912 2 -2 22 2 7216. -19054. 824. <
1912 1 2 22 -2 7216. -19054. 824. <
1913 3 -2 -22 0 707. 454. 907. <
1913 2 0 22 -2 707. 454. 907. <
1913 1 0 22 2 707. 454. 907. <
1914 3 2 -22 0 621. 907. 907. <
1914 2 0 22 2 621. 907. 907. <
1914 1 0 22 -2 621. 907. 907. <
1915 3 -2 -22 -2 7292. -1815. 1363. <
1915 2 -2 22 -2 7292. -1815. 1363. <
1915 1 2 22 2 7292. -1815. 1363. <
1916 3 2 -22 2 7301. -10434. 1345. <
1916 2 2 22 2 7301. -10434. 1345. <
1916 1 -2 22 -2 7301. -10434. 1345. <
1917 3 -2 -22 -4 1103. 454. 907. <
1917 2 -4 22 -2 1103. 454. 907. <
1917 1 4 22 2 1103. 454. 907. <
1918 3 -2 -22 -6 21652. 23136. 2719. o
1918 2 -6 22 -2 21652. 23136. 2719. o
1918 1 6 22 2 21652. 23136. 2719. o
1919 3 -2 -22 -8 500. 454. 1361. <
1919 2 -8 22 -2 500. 454. 1361. <
1919 1 8 22 2 500. 454. 1361. <
1920 3 -2 -22 -10 2770. 0. 1361. <
1920 2 -10 22 -2 2770. 0. 1361. <
1920 1 10 22 2 2770. 0. 1361. <
1921 2 9 23 -2 59. -907. 1815. <
1921 1 -9 23 2 59. -907. 1815. <
1922 2 -9 23 2 59. 0. 907. <
1922 1 9 23 -2 59. 0. 907. <
1923 2 7 23 -2 137. 4990. 3628. <
1923 1 -7 23 2 137. 4990. 3628. <
1924 2 -7 23 2 137. 907. 907. <
1924 1 7 23 -2 137. 907. 907. <
1925 2 5 23 -2 312. -454. 1361. <
1925 1 -5 23 2 312. -454. 1361. <
1926 2 -5 23 2 312. 907. 907. <
1926 1 5 23 -2 312. 907. 907. <
1927 2 3 23 -2 586. 1361. 907. <
1927 1 -3 23 2 586. 1361. 907. <
1928 2 -3 23 2 584. 1361. 907. <
1928 1 3 23 -2 584. 1361. 907. <
1929 2 1 23 -2 8974. 8166. 909. o
1929 1 -1 23 2 8974. 8166. 909. o
1930 2 -1 23 2 8977. 7712. 910. o
1930 1 1 23 -2 8977. 7712. 910. o
1931 2 -1 23 -2 8977. 8619. 908. o
1931 1 1 23 2 8977. 8619. 908. o
1932 2 1 23 2 8974. 8166. 909. o
1932 1 -1 23 -2 8974. 8166. 909. o
1933 2 -3 23 -2 584. 1361. 907. <
1933 1 3 23 2 584. 1361. 907. <
1934 2 3 23 2 586. 1361. 1361. <
1934 1 -3 23 -2 586. 1361. 1361. <
1935 2 -5 23 -2 312. -454. 1361. <
1935 1 5 23 2 312. -454. 1361. <
1936 2 -7 23 -2 137. 907. 907. <
1936 1 7 23 2 137. 907. 907. <
1937 2 -9 23 -2 59. 454. 907. <
1937 1 9 23 2 59. 454. 907. <
1938 3 2 -24 -10 12293. 9073. 1367. o
1938 2 -10 24 2 12293. 9073. 1367. o
1938 1 10 24 -2 12293. 9073. 1367. o
1939 3 -2 -24 8 9944. 5898. 2725. o
1939 2 8 24 -2 9944. 5898. 2725. o
1939 1 -8 24 2 9944. 5898. 2725. o
1940 3 2 -24 -8 10361. 10434. 1361. o
1940 2 -8 24 2 10361. 10434. 1361. o
1940 1 8 24 -2 10361. 10434. 1361. o
1941 3 -2 -24 6 411659. 308032. 9655. o
1941 2 6 24 -2 411659. 308032. 9655. o
1941 1 -6 24 2 411659. 308032. 9655. o
1942 3 2 -24 -6 411185. 453202. 3881. o
1942 2 -6 24 2 411185. 453202. 3881. o
1942 1 6 24 -2 411185. 453202. 3881. o
1943 3 -2 -24 4 156430. 156965. 2714. o
1943 2 4 24 -2 156430. 156965. 2714. o
1943 1 -4 24 2 156430. 156965. 2714. o
1944 3 2 -24 -4 158847. 152428. 1955. o
1944 2 -4 24 2 158847. 152428. 1955. o
1944 1 4 24 -2 158847. 152428. 1955. o
1945 3 -2 -24 0 619994. 657347. 12938. o
1945 2 0 24 -2 619994. 657347. 12938. o
1945 1 0 24 2 619994. 657347. 12938. o
1946 3 2 -24 0 621504. 673225. 13062. o
1946 2 0 24 2 621504. 673225. 13062. o
1946 1 0 24 -2 621504. 673225. 13062. o
1947 3 -2 -24 -4 157894. 167853. 2067. o
1947 2 -4 24 -2 157894. 167853. 2067. o
1947 1 4 24 2 157894. 167853. 2067. o
1948 3 -2 -24 -6 411500. 364286. 4769. o
1948 2 -6 24 -2 411500. 364286. 4769. o
1948 1 6 24 2 411500. 364286. 4769. o
1949 3 -2 -24 -8 10119. 9980. 1361. o
1949 2 -8 24 -2 10119. 9980. 1361. o
1949 1 8 24 2 10119. 9980. 1361. o
1950 3 -2 -24 -10 12391. 9980. 1366. o
1950 2 -10 24 -2 12391. 9980. 1366. o
1950 1 10 24 2 12391. 9980. 1366. o
1951 2 9 25 -2 4. -2722. 1814. <
1951 1 -9 25 2 4. -2722. 1814. <
1952 2 -9 25 2 4. 1361. 1361. <
1952 1 9 25 -2 4. 1361. 1361. <
1953 2 7 25 -2 24. -1361. 2722. <
1953 1 -7 25 2 24. -1361. 2722. <
1954 2 -7 25 2 24. 454. 907. <
1954 1 7 25 -2 24. 454. 907. <
1955 2 5 25 -2 84. -907. 1361. <
1955 1 -5 25 2 84. -907. 1361. <
1956 2 -5 25 2 84. 907. 907. <
1956 1 5 25 -2 84. 907. 907. <
1957 2 3 25 -2 1190. 907. 907. <
1957 1 -3 25 2 1190. 907. 907. <
1958 2 -3 25 2 1188. 907. 907. <
1958 1 3 25 -2 1188. 907. 907. <
1959 2 1 25 -2 5490. 5898. 907. o
1959 1 -1 25 2 5490. 5898. 907. o
1960 2 -1 25 2 5491. 6351. 906. o
1960 1 1 25 -2 5491. 6351. 906. o
1961 2 -1 25 -2 5491. 6805. 905. o
1961 1 1 25 2 5491. 6805. 905. o
1962 2 1 25 2 5490. 6805. 905. o
1962 1 -1 25 -2 5490. 6805. 905. o
1963 2 -3 25 -2 1188. 1361. 907. <
1963 1 3 25 2 1188. 1361. 907. <
1964 2 3 25 2 1190. 907. 1361. <
1964 1 -3 25 -2 1190. 907. 1361. <
1965 2 -5 25 -2 84. 454. 1361. <
1965 1 5 25 2 84. 454. 1361. <
1966 2 -7 25 -2 24. -2268. 1360. <
1966 1 7 25 2 24. -2268. 1360. <
1967 2 -9 25 -2 4. 0. 907. <
1967 1 9 25 2 4. 0. 907. <
1968 3 2 -26 -10 4242. 8619. 1355. o
1968 2 -10 26 2 4242. 8619. 1355. o
1968 1 10 26 -2 4242. 8619. 1355. o
1969 3 -2 -26 8 1999. 907. 2268. <
1969 2 8 26 -2 1999. 907. 2268. <
1969 1 -8 26 2 1999. 907. 2268. <
1970 3 2 -26 -8 2120. 4083. 1360. o
1970 2 -8 26 2 2120. 4083. 1360. o
1970 1 8 26 -2 2120. 4083. 1360. o
1971 3 -2 -26 6 90404. 70770. 4625. o
1971 2 6 26 -2 90404. 70770. 4625. o
1971 1 -6 26 2 90404. 70770. 4625. o
1972 3 2 -26 -6 90364. 89824. 3180. o
1972 2 -6 26 2 90364. 89824. 3180. o
1972 1 6 26 -2 90364. 89824. 3180. o
1973 3 -2 -26 4 17869. 11795. 1377. o
1973 2 4 26 -2 17869. 11795. 1377. o
1973 1 -4 26 2 17869. 11795. 1377. o
1974 3 2 -26 -4 18579. 17693. 1364. o
1974 2 -4 26 2 18579. 17693. 1364. o
1974 1 4 26 -2 18579. 17693. 1364. o
1975 3 -2 -26 2 727631. 672318. 5519. o
1975 2 2 26 -2 727631. 672318. 5519. o
1975 1 -2 26 2 727631. 672318. 5519. o
1976 3 2 -26 -2 728228. 807507. 15424. o
1976 2 -2 26 2 728228. 807507. 15424. o
1976 1 2 26 -2 728228. 807507. 15424. o
1977 3 -2 -26 0 72518. 70770. 1385. o
1977 2 0 26 -2 72518. 70770. 1385. o
1977 1 0 26 2 72518. 70770. 1385. o
1978 3 2 -26 0 73071. 71678. 1381. o
1978 2 0 26 2 73071. 71678. 1381. o
1978 1 0 26 -2 73071. 71678. 1381. o
1979 3 -2 -26 -2 727947. 707249. 4589. o
1979 2 -2 26 -2 727947. 707249. 4589. o
1979 1 2 26 2 727947. 707249. 4589. o
1980 3 2 -26 2 727913. 762595. 15228. o
1980 2 2 26 2 727913. 762595. 15228. o
1980 1 -2 26 -2 727913. 762595. 15228. o
1981 3 -2 -26 -4 18276. 23590. 1798. o
1981 2 -4 26 -2 18276. 23590. 1798. o
1981 1 4 26 2 18276. 23590. 1798. o
1982 3 -2 -26 -6 90371. 76668. 3268. o
1982 2 -6 26 -2 90371. 76668. 3268. o
1982 1 6 26 2 90371. 76668. 3268. o
1983 3 -2 -26 -8 2062. 3629. 1360. o
1983 2 -8 26 -2 2062. 3629. 1360. o
1983 1 8 26 2 2062. 3629. 1360. o
1984 3 -2 -26 -10 4261. 7258. 902. o
1984 2 -10 26 -2 4261. 7258. 902. o
1984 1 10 26 2 4261. 7258. 902. o
1985 2 9 27 -2 41. 907. 1815. <
1985 1 -9 27 2 41. 907. 1815. <
1986 2 -9 27 2 41. 3176. 905. o
1986 1 9 27 -2 41. 3176. 905. o
1987 2 7 27 -2 64. -454. 2722. <
1987 1 -7 27 2 64. -454. 2722. <
1988 2 -7 27 2 64. -907. 907. <
1988 1 7 27 -2 64. -907. 907. <
1989 2 5 27 -2 702. 454. 1815. <
1989 1 -5 27 2 702. 454. 1815. <
1990 2 -5 27 2 700. 1361. 907. <
1990 1 5 27 -2 700. 1361. 907. <
1991 2 3 27 -2 368. 907. 907. <
1991 1 -3 27 2 368. 907. 907. <
1992 2 -3 27 2 365. 454. 907. <
1992 1 3 27 -2 365. 454. 907. <
1993 2 1 27 -2 4346. 4083. 908. o
1993 1 -1 27 2 4346. 4083. 908. o
1994 2 -1 27 2 4348. 4990. 906. o
1994 1 1 27 -2 4348. 4990. 906. o
1995 2 -1 27 -2 4348. 3629. 908. o
1995 1 1 27 2 4348. 3629. 908. o
1996 2 1 27 2 4346. 4083. 908. o
1996 1 -1 27 -2 4346. 4083. 908. o
1997 2 -3 27 -2 365. 1361. 907. <
1997 1 3 27 2 365. 1361. 907. <
1998 2 3 27 2 368. 454. 907. <
1998 1 -3 27 -2 368. 454. 907. <
1999 2 -5 27 -2 700. 907. 1361. <
1999 1 5 27 2 700. 907. 1361. <
2000 2 -7 27 -2 64. 2722. 1360. <
2000 1 7 27 2 64. 2722. 1360. <
2001 2 -9 27 -2 41. -454. 907. <
2001 1 9 27 2 41. -454. 907. <
2002 3 -2 -28 8 156. 1361. 2268. <
2002 2 8 28 -2 156. 1361. 2268. <
2002 1 -8 28 2 156. 1361. 2268. <
2003 3 2 -28 -8 167. 2268. 1360. <
2003 2 -8 28 2 167. 2268. 1360. <
2003 1 8 28 -2 167. 2268. 1360. <
2004 3 -2 -28 6 18613. 6805. 3186. o
2004 2 6 28 -2 18613. 6805. 3186. o
2004 1 -6 28 2 18613. 6805. 3186. o
2005 3 2 -28 -6 18601. 13156. 1377. o
2005 2 -6 28 2 18601. 13156. 1377. o
2005 1 6 28 -2 18601. 13156. 1377. o
2006 3 -2 -28 4 4267. 454. 1816. <
2006 2 4 28 -2 4267. 454. 1816. <
2006 1 -4 28 2 4267. 454. 1816. <
2007 3 2 -28 -4 4328. 4083. 908. o
2007 2 -4 28 2 4328. 4083. 908. o
2007 1 4 28 -2 4328. 4083. 908. o
2008 3 -2 -28 2 154213. 147438. 1958. o
2008 2 2 28 -2 154213. 147438. 1958. o
2008 1 -2 28 2 154213. 147438. 1958. o
2009 3 2 -28 -2 154646. 159233. 1705. o
2009 2 -2 28 2 154646. 159233. 1705. o
2009 1 2 28 -2 154646. 159233. 1705. o
2010 3 -2 -28 0 22071. 21776. 909. o
2010 2 0 28 -2 22071. 21776. 909. o
2010 1 0 28 2 22071. 21776. 909. o
2011 3 2 -28 0 22303. 19961. 921. o
2011 2 0 28 2 22303. 19961. 921. o
2011 1 0 28 -2 22303. 19961. 921. o
2012 3 -2 -28 -2 154442. 156058. 1777. o
2012 2 -2 28 -2 154442. 156058. 1777. o
2012 1 2 28 2 154442. 156058. 1777. o
2013 3 2 -28 2 154417. 150160. 2343. o
2013 2 2 28 2 154417. 150160. 2343. o
2013 1 -2 28 -2 154417. 150160. 2343. o
2014 3 -2 -28 -4 4307. 4083. 1361. o
2014 2 -4 28 -2 4307. 4083. 1361. o
2014 1 4 28 2 4307. 4083. 1361. o
2015 3 -2 -28 -6 18637. 8166. 1832. o
2015 2 -6 28 -2 18637. 8166. 1832. o
2015 1 6 28 2 18637. 8166. 1832. o
2016 3 -2 -28 -8 155. 907. 1361. <
2016 2 -8 28 -2 155. 907. 1361. <
2016 1 8 28 2 155. 907. 1361. <
2017 2 9 29 -2 96. 907. 1815. <
2017 1 -9 29 2 96. 907. 1815. <
2018 2 -9 29 2 96. 2722. 906. o
2018 1 9 29 -2 96. 2722. 906. o
2019 2 7 29 -2 48. 907. 2722. <
2019 1 -7 29 2 48. 907. 2722. <
2020 2 -7 29 2 47. 2268. 1360. <
2020 1 7 29 -2 47. 2268. 1360. <
2021 2 -5 29 2 2696. 16785. 1789. o
2021 1 5 29 -2 2696. 16785. 1789. o
2022 2 3 29 -2 632. 0. 907. <
2022 1 -3 29 2 632. 0. 907. <
2023 2 -3 29 2 637. 907. 907. <
2023 1 3 29 -2 637. 907. 907. <
2024 2 1 29 -2 6081. 34932. 2181. o
2024 1 -1 29 2 6081. 34932. 2181. o
2025 2 -1 29 2 6096. -907. 1363. <
2025 1 1 29 -2 6096. -907. 1363. <
2026 2 -1 29 -2 6096. 35385. 1701. o
2026 1 1 29 2 6096. 35385. 1701. o
2027 2 1 29 2 6081. 32663. 1231. o
2027 1 -1 29 -2 6081. 32663. 1231. o
2028 2 -3 29 -2 637. 1815. 907. <
2028 1 3 29 2 637. 1815. 907. <
2029 2 3 29 2 632. 1361. 1361. <
2029 1 -3 29 -2 632. 1361. 1361. <
2030 2 -5 29 -2 2696. 13610. 3166. o
2030 1 5 29 2 2696. 13610. 3166. o
2031 2 -7 29 -2 47. 907. 1361. <
2031 1 7 29 2 47. 907. 1361. <
2032 2 -9 29 -2 96. 1361. 907. <
2032 1 9 29 2 96. 1361. 907. <
2033 3 -2 -30 8 257. 454. 1815. <
2033 2 8 30 -2 257. 454. 1815. <
2033 1 -8 30 2 257. 454. 1815. <
2034 3 2 -30 -8 265. 1361. 907. <
2034 2 -8 30 2 265. 1361. 907. <
2034 1 8 30 -2 265. 1361. 907. <
2035 3 -2 -30 6 8177. 6805. 2723. o
2035 2 6 30 -2 8177. 6805. 2723. o
2035 1 -6 30 2 8177. 6805. 2723. o
2036 3 2 -30 -6 8094. 4990. 1365. o
2036 2 -6 30 2 8094. 4990. 1365. o
2036 1 6 30 -2 8094. 4990. 1365. o
2037 3 -2 -30 4 4752. 3176. 2269. <
2037 2 4 30 -2 4752. 3176. 2269. <
2037 1 -4 30 2 4752. 3176. 2269. <
2038 3 2 -30 -4 4814. 4083. 908. o
2038 2 -4 30 2 4814. 4083. 908. o
2038 1 4 30 -2 4814. 4083. 908. o
2039 3 -2 -30 2 66038. 63058. 1398. o
2039 2 2 30 -2 66038. 63058. 1398. o
2039 1 -2 30 2 66038. 63058. 1398. o
2040 3 2 -30 -2 65827. 67141. 1344. o
2040 2 -2 30 2 65827. 67141. 1344. o
2040 1 2 30 -2 65827. 67141. 1344. o
2041 3 -2 -30 0 22762. 22229. 911. o
2041 2 0 30 -2 22762. 22229. 911. o
2041 1 0 30 2 22762. 22229. 911. o
2042 3 2 -30 0 22845. 23590. 902. o
2042 2 0 30 2 22845. 23590. 902. o
2042 1 0 30 -2 22845. 23590. 902. o
2043 3 -2 -30 -2 65926. 69863. 1307. o
2043 2 -2 30 -2 65926. 69863. 1307. o
2043 1 2 30 2 65926. 69863. 1307. o
2044 3 2 -30 2 65939. 63966. 1833. o
2044 2 2 30 2 65939. 63966. 1833. o
2044 1 -2 30 -2 65939. 63966. 1833. o
2045 3 -2 -30 -4 4812. 4083. 908. o
2045 2 -4 30 -2 4812. 4083. 908. o
2045 1 4 30 2 4812. 4083. 908. o
2046 3 2 -30 4 4753. 3629. 1362. o
2046 2 4 30 2 4753. 3629. 1362. o
2046 1 -4 30 -2 4753. 3629. 1362. o
2047 3 -2 -30 -6 8131. 4537. 1818. o
2047 2 -6 30 -2 8131. 4537. 1818. o
2047 1 6 30 2 8131. 4537. 1818. o
2048 3 -2 -30 -8 269. 1361. 907. <
2048 2 -8 30 -2 269. 1361. 907. <
2048 1 8 30 2 269. 1361. 907. <
2049 2 9 31 -2 158. 3176. 1814. <
2049 1 -9 31 2 158. 3176. 1814. <
2050 2 -9 31 2 158. 454. 1361. <
2050 1 9 31 -2 158. 454. 1361. <
2051 2 7 31 -2 367. -1815. 2722. <
2051 1 -7 31 2 367. -1815. 2722. <
2052 2 -7 31 2 368. 454. 1361. <
2052 1 7 31 -2 368. 454. 1361. <
2053 2 -5 31 2 8957. 10434. 2267. o
2053 1 5 31 -2 8957. 10434. 2267. o
2054 2 3 31 -2 17842. 16785. 913. o
2054 1 -3 31 2 17842. 16785. 913. o
2055 2 -3 31 2 17841. 19507. 898. o
2055 1 3 31 -2 17841. 19507. 898. o
2056 2 -1 31 2 107463. 113414. 2189. o
2056 1 1 31 -2 107463. 113414. 2189. o
2057 2 -1 31 -2 107463. 104794. 2749. o
2057 1 1 31 2 107463. 104794. 2749. o
2058 2 1 31 2 107461. 103887. 1869. o
2058 1 -1 31 -2 107461. 103887. 1869. o
2059 2 -3 31 -2 17841. 17693. 1361. o
2059 1 3 31 2 17841. 17693. 1361. o
2060 2 3 31 2 17842. 20414. 1807. o
2060 1 -3 31 -2 17842. 20414. 1807. o
2061 2 -7 31 -2 368. -1361. 907. <
2061 1 7 31 2 368. -1361. 907. <
2062 2 -9 31 -2 158. 0. 907. <
2062 1 9 31 2 158. 0. 907. <
2063 3 -2 -32 8 366. 2722. 1814. <
2063 2 8 32 -2 366. 2722. 1814. <
2063 1 -8 32 2 366. 2722. 1814. <
2064 3 2 -32 -8 349. 2722. 1360. <
2064 2 -8 32 2 349. 2722. 1360. <
2064 1 8 32 -2 349. 2722. 1360. <
2065 3 -2 -32 6 4827. 5444. 3175. <
2065 2 6 32 -2 4827. 5444. 3175. <
2065 1 -6 32 2 4827. 5444. 3175. <
2066 3 2 -32 -6 4869. 2268. 1363. <
2066 2 -6 32 2 4869. 2268. 1363. <
2066 1 6 32 -2 4869. 2268. 1363. <
2067 3 -2 -32 4 5227. 4990. 1361. o
2067 2 4 32 -2 5227. 4990. 1361. o
2067 1 -4 32 2 5227. 4990. 1361. o
2068 3 2 -32 -4 5131. 5444. 907. o
2068 2 -4 32 2 5131. 5444. 907. o
2068 1 4 32 -2 5131. 5444. 907. o
2069 3 -2 -32 2 31953. 29941. 925. o
2069 2 2 32 -2 31953. 29941. 925. o
2069 1 -2 32 2 31953. 29941. 925. o
2070 3 2 -32 -2 31952. 31302. 913. o
2070 2 -2 32 2 31952. 31302. 913. o
2070 1 2 32 -2 31952. 31302. 913. o
2071 3 -2 -32 0 20971. 21776. 902. o
2071 2 0 32 -2 20971. 21776. 902. o
2071 1 0 32 2 20971. 21776. 902. o
2072 3 2 -32 0 20900. 21322. 905. o
2072 2 0 32 2 20900. 21322. 905. o
2072 1 0 32 -2 20900. 21322. 905. o
2073 3 -2 -32 -2 31952. 30395. 921. o
2073 2 -2 32 -2 31952. 30395. 921. o
2073 1 2 32 2 31952. 30395. 921. o
2074 3 2 -32 2 31952. 32210. 1359. o
2074 2 2 32 2 31952. 32210. 1359. o
2074 1 -2 32 -2 31952. 32210. 1359. o
2075 3 -2 -32 -4 5171. 4990. 1361. o
2075 2 -4 32 -2 5171. 4990. 1361. o
2075 1 4 32 2 5171. 4990. 1361. o
2076 3 2 -32 4 5187. 5444. 1361. o
2076 2 4 32 2 5187. 5444. 1361. o
2076 1 -4 32 -2 5187. 5444. 1361. o
2077 3 -2 -32 -6 4869. 5444. 1814. o
2077 2 -6 32 -2 4869. 5444. 1814. o
2077 1 6 32 2 4869. 5444. 1814. o
2078 3 -2 -32 -8 353. -1361. 907. <
2078 2 -8 32 -2 353. -1361. 907. <
2078 1 8 32 2 353. -1361. 907. <
2079 2 9 33 -2 46. 907. 1815. <
2079 1 -9 33 2 46. 907. 1815. <
2080 2 -9 33 2 46. 0. 1361. <
2080 1 9 33 -2 46. 0. 1361. <
2081 2 7 33 -2 106. 907. 2268. <
2081 1 -7 33 2 106. 907. 2268. <
2082 2 -7 33 2 106. 907. 1361. <
2082 1 7 33 -2 106. 907. 1361. <
2083 2 5 33 -2 244. 2268. 1814. <
2083 1 -5 33 2 244. 2268. 1814. <
2084 2 -5 33 2 243. 2268. 1360. <
2084 1 5 33 -2 243. 2268. 1360. <
2085 2 3 33 -2 1069. 907. 907. <
2085 1 -3 33 2 1069. 907. 907. <
2086 2 -3 33 2 1068. 1815. 907. <
2086 1 3 33 -2 1068. 1815. 907. <
2087 2 -1 33 2 3156. 1815. 908. <
2087 1 1 33 -2 3156. 1815. 908. <
2088 2 -1 33 -2 3156. 2722. 1361. <
2088 1 1 33 2 3156. 2722. 1361. <
2089 2 -3 33 -2 1068. 1815. 907. <
2089 1 3 33 2 1068. 1815. 907. <
2090 2 3 33 2 1069. 1361. 1361. <
2090 1 -3 33 -2 1069. 1361. 1361. <
2091 2 -5 33 -2 243. 7258. 2719. o
2091 1 5 33 2 243. 7258. 2719. o
2092 2 -7 33 -2 106. 2722. 906. o
2092 1 7 33 2 106. 2722. 906. o
2093 2 -9 33 -2 46. 454. 907. <
2093 1 9 33 2 46. 454. 907. <
2094 3 -2 -34 8 375. 454. 1815. <
2094 2 8 34 -2 375. 454. 1815. <
2094 1 -8 34 2 375. 454. 1815. <
2095 3 2 -34 -8 367. 2268. 1360. <
2095 2 -8 34 2 367. 2268. 1360. <
2095 1 8 34 -2 367. 2268. 1360. <
2096 3 -2 -34 6 5012. -3629. 4990. <
2096 2 6 34 -2 5012. -3629. 4990. <
2096 1 -6 34 2 5012. -3629. 4990. <
2097 3 2 -34 -6 4987. -5444. 1812. <
2097 2 -6 34 2 4987. -5444. 1812. <
2097 1 6 34 -2 4987. -5444. 1812. <
2098 3 -2 -34 4 1746. -907. 1361. <
2098 2 4 34 -2 1746. -907. 1361. <
2098 1 -4 34 2 1746. -907. 1361. <
2099 3 2 -34 -4 1789. 1361. 1361. <
2099 2 -4 34 2 1789. 1361. 1361. <
2099 1 4 34 -2 1789. 1361. 1361. <
2100 3 -2 -34 2 4125. 454. 909. <
2100 2 2 34 -2 4125. 454. 909. <
2100 1 -2 34 2 4125. 454. 909. <
2101 3 2 -34 -2 4191. -454. 909. <
2101 2 -2 34 2 4191. -454. 909. <
2101 1 2 34 -2 4191. -454. 909. <
2102 3 -2 -34 0 12878. 11341. 913. o
2102 2 0 34 -2 12878. 11341. 913. o
2102 1 0 34 2 12878. 11341. 913. o
2103 3 2 -34 0 12979. 12702. 908. o
2103 2 0 34 2 12979. 12702. 908. o
2103 1 0 34 -2 12979. 12702. 908. o
2104 3 -2 -34 -2 4160. 1815. 909. <
2104 2 -2 34 -2 4160. 1815. 909. <
2104 1 2 34 2 4160. 1815. 909. <
2105 3 2 -34 2 4156. -907. 908. <
2105 2 2 34 2 4156. -907. 908. <
2105 1 -2 34 -2 4156. -907. 908. <
2106 3 -2 -34 -4 1784. 1361. 1361. <
2106 2 -4 34 -2 1784. 1361. 1361. <
2106 1 4 34 2 1784. 1361. 1361. <
2107 3 2 -34 4 1751. -454. 1361. <
2107 2 4 34 2 1751. -454. 1361. <
2107 1 -4 34 -2 1751. -454. 1361. <
2108 3 -2 -34 -6 5016. -4083. 1359. <
2108 2 -6 34 -2 5016. -4083. 1359. <
2108 1 6 34 2 5016. -4083. 1359. <
2109 3 -2 -34 -8 374. 907. 907. <
2109 2 -8 34 -2 374. 907. 907. <
2109 1 8 34 2 374. 907. 907. <
2110 2 9 35 -2 49. 1361. 1814. <
2110 1 -9 35 2 49. 1361. 1814. <
2111 2 -9 35 2 49. 3629. 1359. o
2111 1 9 35 -2 49. 3629. 1359. o
2112 2 7 35 -2 34. 5444. 2266. o
2112 1 -7 35 2 34. 5444. 2266. o
2113 2 -7 35 2 34. 2722. 1360. <
2113 1 7 35 -2 34. 2722. 1360. <
2114 2 5 35 -2 289. 4083. 1813. o
2114 1 -5 35 2 289. 4083. 1813. o
2115 2 -5 35 2 289. 2268. 1360. <
2115 1 5 35 -2 289. 2268. 1360. <
2116 2 3 35 -2 317. -907. 907. <
2116 1 -3 35 2 317. -907. 907. <
2117 2 -3 35 2 318. -454. 907. <
2117 1 3 35 -2 318. -454. 907. <
2118 2 1 35 -2 776. 454. 1361. <
2118 1 -1 35 2 776. 454. 1361. <
2119 2 -1 35 2 777. 907. 907. <
2119 1 1 35 -2 777. 907. 907. <
2120 2 -1 35 -2 777. 907. 907. <
2120 1 1 35 2 777. 907. 907. <
2121 2 -3 35 -2 318. 907. 1361. <
2121 1 3 35 2 318. 907. 1361. <
2122 2 3 35 2 317. 907. 1361. <
2122 1 -3 35 -2 317. 907. 1361. <
2123 2 -5 35 -2 289. 2268. 2722. <
2123 1 5 35 2 289. 2268. 2722. <
2124 2 -7 35 -2 34. 0. 1361. <
2124 1 7 35 2 34. 0. 1361. <
2125 2 -9 35 -2 49. 0. 907. <
2125 1 9 35 2 49. 0. 907. <
2126 3 -2 -36 8 9163. 5898. 2271. o
2126 2 8 36 -2 9163. 5898. 2271. o
2126 1 -8 36 2 9163. 5898. 2271. o
2127 3 2 -36 -8 9265. 9073. 1815. o
2127 2 -8 36 2 9265. 9073. 1815. o
2127 1 8 36 -2 9265. 9073. 1815. o
2128 3 -2 -36 6 119005. 35385. 6570. o
2128 2 6 36 -2 119005. 35385. 6570. o
2128 1 -6 36 2 119005. 35385. 6570. o
2129 3 2 -36 -6 118491. 76214. 3481. o
2129 2 -6 36 2 118491. 76214. 3481. o
2129 1 6 36 -2 118491. 76214. 3481. o
2130 3 -2 -36 4 28212. 28580. 1813. o
2130 2 4 36 -2 28212. 28580. 1813. o
2130 1 -4 36 2 28212. 28580. 1813. o
2131 3 2 -36 -4 28005. 31302. 1800. o
2131 2 -4 36 2 28005. 31302. 1800. o
2131 1 4 36 -2 28005. 31302. 1800. o
2132 3 -2 -36 2 468548. 514899. 10188. o
2132 2 2 36 -2 468548. 514899. 10188. o
2132 1 -2 36 2 468548. 514899. 10188. o
2133 3 2 -36 -2 467140. 549831. 10391. o
2133 2 -2 36 2 467140. 549831. 10391. o
2133 1 2 36 -2 467140. 549831. 10391. o
2134 3 -2 -36 0 11587. 9527. 913. o
2134 2 0 36 -2 11587. 9527. 913. o
2134 1 0 36 2 11587. 9527. 913. o
2135 3 2 -36 0 11117. 8619. 914. o
2135 2 0 36 2 11117. 8619. 914. o
2135 1 0 36 -2 11117. 8619. 914. o
2136 3 -2 -36 -2 467804. 507641. 10132. o
2136 2 -2 36 -2 467804. 507641. 10132. o
2136 1 2 36 2 467804. 507641. 10132. o
2137 3 -2 -36 -4 28068. 30849. 1802. o
2137 2 -4 36 -2 28068. 30849. 1802. o
2137 1 4 36 2 28068. 30849. 1802. o
2138 3 2 -36 4 28149. 26312. 1822. o
2138 2 4 36 2 28149. 26312. 1822. o
2138 1 -4 36 -2 28149. 26312. 1822. o
2139 3 -2 -36 -6 118743. 80751. 3050. o
2139 2 -6 36 -2 118743. 80751. 3050. o
2139 1 6 36 2 118743. 80751. 3050. o
2140 3 -2 -36 -8 9206. 9527. 1360. o
2140 2 -8 36 -2 9206. 9527. 1360. o
2140 1 8 36 2 9206. 9527. 1360. o
2141 2 9 37 -2 5. 0. 1361. <
2141 1 -9 37 2 5. 0. 1361. <
2142 2 -9 37 2 5. 454. 1361. <
2142 1 9 37 -2 5. 454. 1361. <
2143 2 7 37 -2 24. -2722. 2268. <
2143 1 -7 37 2 24. -2722. 2268. <
2144 2 -7 37 2 24. 454. 1361. <
2144 1 7 37 -2 24. 454. 1361. <
2145 2 5 37 -2 27. 907. 1815. <
2145 1 -5 37 2 27. 907. 1815. <
2146 2 -5 37 2 27. 907. 1815. <
2146 1 5 37 -2 27. 907. 1815. <
2147 2 3 37 -2 485. 454. 907. <
2147 1 -3 37 2 485. 454. 907. <
2148 2 -3 37 2 486. 0. 907. <
2148 1 3 37 -2 486. 0. 907. <
2149 2 1 37 -2 774. 1815. 907. <
2149 1 -1 37 2 774. 1815. 907. <
2150 2 -1 37 2 774. 907. 1361. <
2150 1 1 37 -2 774. 907. 1361. <
2151 2 -1 37 -2 774. 907. 907. <
2151 1 1 37 2 774. 907. 907. <
2152 2 1 37 2 774. -454. 1361. <
2152 1 -1 37 -2 774. -454. 1361. <
2153 2 -3 37 -2 486. 454. 1361. <
2153 1 3 37 2 486. 454. 1361. <
2154 2 3 37 2 485. 454. 1361. <
2154 1 -3 37 -2 485. 454. 1361. <
2155 2 -5 37 -2 27. 1361. 2722. <
2155 1 5 37 2 27. 1361. 2722. <
2156 2 -7 37 -2 24. 1361. 1361. <
2156 1 7 37 2 24. 1361. 1361. <
2157 2 -9 37 -2 5. 2268. 906. o
2157 1 9 37 2 5. 2268. 906. o
2158 3 -2 -38 8 2364. 2722. 1814. <
2158 2 8 38 -2 2364. 2722. 1814. <
2158 1 -8 38 2 2364. 2722. 1814. <
2159 3 2 -38 -8 2405. 5898. 1358. o
2159 2 -8 38 2 2405. 5898. 1358. o
2159 1 8 38 -2 2405. 5898. 1358. o
2160 3 -2 -38 6 34044. 13610. 5012. o
2160 2 6 38 -2 34044. 13610. 5012. o
2160 1 -6 38 2 34044. 13610. 5012. o
2161 3 2 -38 -6 33848. 32663. 2726. o
2161 2 -6 38 2 33848. 32663. 2726. o
2161 1 6 38 -2 33848. 32663. 2726. o
2162 3 -2 -38 4 2577. 1815. 1361. <
2162 2 4 38 -2 2577. 1815. 1361. <
2162 1 -4 38 2 2577. 1815. 1361. <
2163 3 2 -38 -4 2274. 4083. 1360. o
2163 2 -4 38 2 2274. 4083. 1360. o
2163 1 4 38 -2 2274. 4083. 1360. o
2164 3 -2 -38 2 88353. 92546. 1758. o
2164 2 2 38 -2 88353. 92546. 1758. o
2164 1 -2 38 2 88353. 92546. 1758. o
2165 3 2 -38 -2 87552. 101619. 1602. o
2165 2 -2 38 2 87552. 101619. 1602. o
2165 1 2 38 -2 87552. 101619. 1602. o
2166 3 -2 -38 0 15257. 21776. 1336. o
2166 2 0 38 -2 15257. 21776. 1336. o
2166 1 0 38 2 15257. 21776. 1336. o
2167 3 2 -38 0 14879. 21322. 1796. o
2167 2 0 38 2 14879. 21322. 1796. o
2167 1 0 38 -2 14879. 21322. 1796. o
2168 3 -2 -38 -2 87930. 97536. 1676. o
2168 2 -2 38 -2 87930. 97536. 1676. o
2168 1 2 38 2 87930. 97536. 1676. o
2169 3 -2 -38 -4 2377. 3629. 1814. <
2169 2 -4 38 -2 2377. 3629. 1814. <
2169 1 4 38 2 2377. 3629. 1814. <
2170 3 2 -38 4 2474. 907. 1815. <
2170 2 4 38 2 2474. 907. 1815. <
2170 1 -4 38 -2 2474. 907. 1815. <
2171 3 -2 -38 -6 33927. 23136. 2302. o
2171 2 -6 38 -2 33927. 23136. 2302. o
2171 1 6 38 2 33927. 23136. 2302. o
2172 3 -2 -38 -8 2376. 5898. 1358. o
2172 2 -8 38 -2 2376. 5898. 1358. o
2172 1 8 38 2 2376. 5898. 1358. o
2173 2 9 39 -2 11. 2722. 1360. <
2173 1 -9 39 2 11. 2722. 1360. <
2174 2 -9 39 2 11. 454. 1361. <
2174 1 9 39 -2 11. 454. 1361. <
2175 2 7 39 -2 62. 2722. 2268. <
2175 1 -7 39 2 62. 2722. 2268. <
2176 2 -7 39 2 63. 1361. 1361. <
2176 1 7 39 -2 63. 1361. 1361. <
2177 2 5 39 -2 6. -454. 1815. <
2177 1 -5 39 2 6. -454. 1815. <
2178 2 -5 39 2 6. 3629. 2267. <
2178 1 5 39 -2 6. 3629. 2267. <
2179 2 3 39 -2 800. 2722. 1360. <
2179 1 -3 39 2 800. 2722. 1360. <
2180 2 -3 39 2 799. 1361. 1361. <
2180 1 3 39 -2 799. 1361. 1361. <
2181 2 1 39 -2 121. 454. 907. <
2181 1 -1 39 2 121. 454. 907. <
2182 2 -1 39 2 121. 1815. 1814. <
2182 1 1 39 -2 121. 1815. 1814. <
2183 2 -1 39 -2 121. 1361. 907. <
2183 1 1 39 2 121. 1361. 907. <
2184 2 1 39 2 121. 454. 1361. <
2184 1 -1 39 -2 121. 454. 1361. <
2185 2 -3 39 -2 799. 0. 1361. <
2185 1 3 39 2 799. 0. 1361. <
2186 2 3 39 2 800. 907. 1361. <
2186 1 -3 39 -2 800. 907. 1361. <
2187 2 -5 39 -2 6. -2268. 2268. <
2187 1 5 39 2 6. -2268. 2268. <
2188 2 -7 39 -2 63. 1815. 1361. <
2188 1 7 39 2 63. 1815. 1361. <
2189 2 -9 39 -2 11. 907. 1361. <
2189 1 9 39 2 11. 907. 1361. <
2190 3 -2 -40 8 409. -2722. 1814. <
2190 2 8 40 -2 409. -2722. 1814. <
2190 1 -8 40 2 409. -2722. 1814. <
2191 3 2 -40 -8 419. 454. 1361. <
2191 2 -8 40 2 419. 454. 1361. <
2191 1 8 40 -2 419. 454. 1361. <
2192 3 -2 -40 6 4578. -4990. 3628. <
2192 2 6 40 -2 4578. -4990. 3628. <
2192 1 -6 40 2 4578. -4990. 3628. <
2193 3 2 -40 -6 4577. 4537. 1815. o
2193 2 -6 40 2 4577. 4537. 1815. o
2193 1 6 40 -2 4577. 4537. 1815. o
2194 3 -2 -40 4 1541. 1815. 1815. <
2194 2 4 40 -2 1541. 1815. 1815. <
2194 1 -4 40 2 1541. 1815. 1815. <
2195 3 2 -40 -4 1504. 5444. 2266. o
2195 2 -4 40 2 1504. 5444. 2266. o
2195 1 4 40 -2 1504. 5444. 2266. o
2196 3 -2 -40 2 11134. 11341. 907. o
2196 2 2 40 -2 11134. 11341. 907. o
2196 1 -2 40 2 11134. 11341. 907. o
2197 3 2 -40 -2 11018. 12249. 2267. o
2197 2 -2 40 2 11018. 12249. 2267. o
2197 1 2 40 -2 11018. 12249. 2267. o
2198 3 -2 -40 0 625. 1361. 907. <
2198 2 0 40 -2 625. 1361. 907. <
2198 1 0 40 2 625. 1361. 907. <
2199 3 2 -40 0 527. 1815. 1361. <
2199 2 0 40 2 527. 1815. 1361. <
2199 1 0 40 -2 527. 1815. 1361. <
2200 3 -2 -40 -2 11072. 10434. 1362. o
2200 2 -2 40 -2 11072. 10434. 1362. o
2200 1 2 40 2 11072. 10434. 1362. o
2201 3 2 -40 2 11079. 11795. 1359. o
2201 2 2 40 2 11079. 11795. 1359. o
2201 1 -2 40 -2 11079. 11795. 1359. o
2202 3 -2 -40 -4 1503. 2268. 2268. <
2202 2 -4 40 -2 1503. 2268. 2268. <
2202 1 4 40 2 1503. 2268. 2268. <
2203 3 2 -40 4 1542. 907. 1361. <
2203 2 4 40 2 1542. 907. 1361. <
2203 1 -4 40 -2 1542. 907. 1361. <
2204 3 -2 -40 -6 4573. 1815. 1816. <
2204 2 -6 40 -2 4573. 1815. 1816. <
2204 1 6 40 2 4573. 1815. 1816. <
2205 3 -2 -40 -8 409. 2722. 1360. <
2205 2 -8 40 -2 409. 2722. 1360. <
2205 1 8 40 2 409. 2722. 1360. <
2206 2 9 41 -2 29. -454. 1361. <
2206 1 -9 41 2 29. -454. 1361. <
2207 2 -9 41 2 29. 1815. 1361. <
2207 1 9 41 -2 29. 1815. 1361. <
2208 2 7 41 -2 141. 2722. 2268. <
2208 1 -7 41 2 141. 2722. 2268. <
2209 2 -7 41 2 139. 2268. 1814. <
2209 1 7 41 -2 139. 2268. 1814. <
2210 2 5 41 -2 2. 2722. 2721. <
2210 1 -5 41 2 2. 2722. 2721. <
2211 2 -5 41 2 2. 1815. 2268. <
2211 1 5 41 -2 2. 1815. 2268. <
2212 2 3 41 -2 1479. -3629. 1813. <
2212 1 -3 41 2 1479. -3629. 1813. <
2213 2 1 41 -2 39. 0. 1815. <
2213 1 -1 41 2 39. 0. 1815. <
2214 2 -1 41 2 39. 0. 1815. <
2214 1 1 41 -2 39. 0. 1815. <
2215 2 -1 41 -2 39. 0. 907. <
2215 1 1 41 2 39. 0. 907. <
2216 2 1 41 2 39. 0. 1361. <
2216 1 -1 41 -2 39. 0. 1361. <
2217 2 -3 41 -2 1473. 907. 1815. <
2217 1 3 41 2 1473. 907. 1815. <
2218 2 -5 41 -2 2. 907. 2268. <
2218 1 5 41 2 2. 907. 2268. <
2219 2 -7 41 -2 139. 454. 1361. <
2219 1 7 41 2 139. 454. 1361. <
2220 2 -9 41 -2 29. 0. 907. <
2220 1 9 41 2 29. 0. 907. <
2221 3 -2 -42 8 315. 1815. 1361. <
2221 2 8 42 -2 315. 1815. 1361. <
2221 1 -8 42 2 315. 1815. 1361. <
2222 3 2 -42 -8 324. 3629. 1359. o
2222 2 -8 42 2 324. 3629. 1359. o
2222 1 8 42 -2 324. 3629. 1359. o
2223 3 -2 -42 6 2402. 3176. 2722. <
2223 2 6 42 -2 2402. 3176. 2722. <
2223 1 -6 42 2 2402. 3176. 2722. <
2224 3 2 -42 -6 2403. 4083. 1814. o
2224 2 -6 42 2 2403. 4083. 1814. o
2224 1 6 42 -2 2403. 4083. 1814. o
2225 3 -2 -42 4 3558. 2722. 1361. <
2225 2 4 42 -2 3558. 2722. 1361. <
2225 1 -4 42 2 3558. 2722. 1361. <
2226 3 2 -42 -4 3635. 4990. 2721. <
2226 2 -4 42 2 3635. 4990. 2721. <
2226 1 4 42 -2 3635. 4990. 2721. <
2227 3 -2 -42 2 6292. 5898. 1361. o
2227 2 2 42 -2 6292. 5898. 1361. o
2227 1 -2 42 2 6292. 5898. 1361. o
2228 3 2 -42 -2 6234. 7258. 2267. o
2228 2 -2 42 2 6234. 7258. 2267. o
2228 1 2 42 -2 6234. 7258. 2267. o
2229 3 -2 -42 0 2905. 3629. 907. o
2229 2 0 42 -2 2905. 3629. 907. o
2229 1 0 42 2 2905. 3629. 907. o
2230 3 2 -42 0 2945. 4083. 1814. o
2230 2 0 42 2 2945. 4083. 1814. o
2230 1 0 42 -2 2945. 4083. 1814. o
2231 3 -2 -42 -2 6261. 8166. 1358. o
2231 2 -2 42 -2 6261. 8166. 1358. o
2231 1 2 42 2 6261. 8166. 1358. o
2232 3 2 -42 2 6264. 7258. 1360. o
2232 2 2 42 2 6264. 7258. 1360. o
2232 1 -2 42 -2 6264. 7258. 1360. o
2233 3 -2 -42 -4 3602. 3176. 2722. <
2233 2 -4 42 -2 3602. 3176. 2722. <
2233 1 4 42 2 3602. 3176. 2722. <
2234 3 2 -42 4 3590. 4083. 1361. o
2234 2 4 42 2 3590. 4083. 1361. o
2234 1 -4 42 -2 3590. 4083. 1361. o
2235 3 -2 -42 -6 2390. 0. 1815. <
2235 2 -6 42 -2 2390. 0. 1815. <
2235 1 6 42 2 2390. 0. 1815. <
2236 3 -2 -42 -8 321. -454. 907. <
2236 2 -8 42 -2 321. -454. 907. <
2236 1 8 42 2 321. -454. 907. <
2237 2 9 43 -2 43. 0. 1815. <
2237 1 -9 43 2 43. 0. 1815. <
2238 2 -9 43 2 43. -1361. 1361. <
2238 1 9 43 -2 43. -1361. 1361. <
2239 2 7 43 -2 689. 2268. 1814. <
2239 1 -7 43 2 689. 2268. 1814. <
2240 2 -7 43 2 690. 3629. 1813. <
2240 1 7 43 -2 690. 3629. 1813. <
2241 2 5 43 -2 491. 454. 3629. <
2241 1 -5 43 2 491. 454. 3629. <
2242 2 -5 43 2 492. -1361. 2268. <
2242 1 5 43 -2 492. -1361. 2268. <
2243 2 3 43 -2 24188. 29941. 2706. o
2243 1 -3 43 2 24188. 29941. 2706. o
2244 2 1 43 -2 45340. 51717. 1768. o
2244 1 -1 43 2 45340. 51717. 1768. o
2245 2 -1 43 2 45344. 53531. 2219. o
2245 1 1 43 -2 45344. 53531. 2219. o
2246 2 -1 43 -2 45344. 50809. 1307. o
2246 1 1 43 2 45344. 50809. 1307. o
2247 2 -3 43 -2 24197. 22683. 3632. o
2247 1 3 43 2 24197. 22683. 3632. o
2248 2 -5 43 -2 492. 0. 2268. <
2248 1 5 43 2 492. 0. 2268. <
2249 2 -7 43 -2 690. 907. 1361. <
2249 1 7 43 2 690. 907. 1361. <
2250 2 -9 43 -2 43. -907. 907. <
2250 1 9 43 2 43. -907. 907. <
2251 3 -2 -44 8 297. 2268. 1814. <
2251 2 8 44 -2 297. 2268. 1814. <
2251 1 -8 44 2 297. 2268. 1814. <
2252 3 2 -44 -8 290. 1361. 1361. <
2252 2 -8 44 2 290. 1361. 1361. <
2252 1 8 44 -2 290. 1361. 1361. <
2253 3 -2 -44 6 1835. -6351. 2719. <
2253 2 6 44 -2 1835. -6351. 2719. <
2253 1 -6 44 2 1835. -6351. 2719. <
2254 3 2 -44 -6 1852. 2722. 2268. <
2254 2 -6 44 2 1852. 2722. 2268. <
2254 1 6 44 -2 1852. 2722. 2268. <
2255 3 -2 -44 4 1844. 1815. 1361. <
2255 2 4 44 -2 1844. 1815. 1361. <
2255 1 -4 44 2 1844. 1815. 1361. <
2256 3 2 -44 -4 1811. 2268. 3176. <
2256 2 -4 44 2 1811. 2268. 3176. <
2256 1 4 44 -2 1811. 2268. 3176. <
2257 3 -2 -44 2 2240. 1815. 908. <
2257 2 2 44 -2 2240. 1815. 908. <
2257 1 -2 44 2 2240. 1815. 908. <
2258 3 2 -44 -2 2267. 3629. 2268. <
2258 2 -2 44 2 2267. 3629. 2268. <
2258 1 2 44 -2 2267. 3629. 2268. <
2259 3 -2 -44 0 572. 454. 907. <
2259 2 0 44 -2 572. 454. 907. <
2259 1 0 44 2 572. 454. 907. <
2260 3 2 -44 0 549. 907. 1815. <
2260 2 0 44 2 549. 907. 1815. <
2260 1 0 44 -2 549. 907. 1815. <
2261 3 -2 -44 -2 2254. 1361. 1361. <
2261 2 -2 44 -2 2254. 1361. 1361. <
2261 1 2 44 2 2254. 1361. 1361. <
2262 3 2 -44 2 2253. 1361. 1361. <
2262 2 2 44 2 2253. 1361. 1361. <
2262 1 -2 44 -2 2253. 1361. 1361. <
2263 3 -2 -44 -4 1818. 3629. 2721. <
2263 2 -4 44 -2 1818. 3629. 2721. <
2263 1 4 44 2 1818. 3629. 2721. <
2264 3 2 -44 4 1837. 1361. 1361. <
2264 2 4 44 2 1837. 1361. 1361. <
2264 1 -4 44 -2 1837. 1361. 1361. <
2265 3 -2 -44 -6 1846. 1361. 1815. <
2265 2 -6 44 -2 1846. 1361. 1815. <
2265 1 6 44 2 1846. 1361. 1815. <
2266 3 -2 -44 -8 292. 0. 1361. <
2266 2 -8 44 -2 292. 0. 1361. <
2266 1 8 44 2 292. 0. 1361. <
2267 2 9 45 -2 11. -907. 1361. <
2267 1 -9 45 2 11. -907. 1361. <
2268 2 -9 45 2 11. 454. 1361. <
2268 1 9 45 -2 11. 454. 1361. <
2269 2 7 45 -2 109. 3176. 1814. <
2269 1 -7 45 2 109. 3176. 1814. <
2270 2 -7 45 2 110. 907. 1815. <
2270 1 7 45 -2 110. 907. 1815. <
2271 2 5 45 -2 39. 1815. 3175. <
2271 1 -5 45 2 39. 1815. 3175. <
2272 2 -5 45 2 40. 907. 2722. <
2272 1 5 45 -2 40. 907. 2722. <
2273 2 -3 45 2 187. 9073. 3171. o
2273 1 3 45 -2 187. 9073. 3171. o
2274 2 1 45 -2 413. 1361. 907. <
2274 1 -1 45 2 413. 1361. 907. <
2275 2 -1 45 2 415. -1361. 2268. <
2275 1 1 45 -2 415. -1361. 2268. <
2276 2 -1 45 -2 415. 907. 1361. <
2276 1 1 45 2 415. 907. 1361. <
2277 2 -3 45 -2 187. -907. 4083. <
2277 1 3 45 2 187. -907. 4083. <
2278 2 -5 45 -2 40. 1361. 2268. <
2278 1 5 45 2 40. 1361. 2268. <
2279 2 -7 45 -2 110. 454. 1361. <
2279 1 7 45 2 110. 454. 1361. <
2280 2 -9 45 -2 11. 0. 907. <
2280 1 9 45 2 11. 0. 907. <
2281 3 -2 -46 8 437. -907. 1361. <
2281 2 8 46 -2 437. -907. 1361. <
2281 1 -8 46 2 437. -907. 1361. <
2282 3 2 -46 -8 440. -454. 1815. <
2282 2 -8 46 2 440. -454. 1815. <
2282 1 8 46 -2 440. -454. 1815. <
2283 3 -2 -46 6 1504. -907. 2722. <
2283 2 6 46 -2 1504. -907. 2722. <
2283 1 -6 46 2 1504. -907. 2722. <
2284 3 2 -46 -6 1508. 1815. 2268. <
2284 2 -6 46 2 1508. 1815. 2268. <
2284 1 6 46 -2 1508. 1815. 2268. <
2285 3 -2 -46 4 2424. -3629. 3629. <
2285 2 4 46 -2 2424. -3629. 3629. <
2285 1 -4 46 2 2424. -3629. 3629. <
2286 3 2 -46 -4 2416. -907. 3629. <
2286 2 -4 46 2 2416. -907. 3629. <
2286 1 4 46 -2 2416. -907. 3629. <
2287 3 -2 -46 2 7592. 7258. 1815. o
2287 2 2 46 -2 7592. 7258. 1815. o
2287 1 -2 46 2 7592. 7258. 1815. o
2288 3 -2 -46 0 7543. 7712. 1361. o
2288 2 0 46 -2 7543. 7712. 1361. o
2288 1 0 46 2 7543. 7712. 1361. o
2289 3 2 -46 0 7516. 5444. 1816. o
2289 2 0 46 2 7516. 5444. 1816. o
2289 1 0 46 -2 7516. 5444. 1816. o
2290 3 -2 -46 -2 7562. 7712. 1814. o
2290 2 -2 46 -2 7562. 7712. 1814. o
2290 1 2 46 2 7562. 7712. 1814. o
2291 3 2 -46 2 7565. 4990. 1817. o
2291 2 2 46 2 7565. 4990. 1817. o
2291 1 -2 46 -2 7565. 4990. 1817. o
2292 3 -2 -46 -4 2412. 4990. 3175. <
2292 2 -4 46 -2 2412. 4990. 3175. <
2292 1 4 46 2 2412. 4990. 3175. <
2293 3 -2 -46 -6 1505. 1361. 1815. <
2293 2 -6 46 -2 1505. 1361. 1815. <
2293 1 6 46 2 1505. 1361. 1815. <
2294 3 -2 -46 -8 435. 2268. 906. o
2294 2 -8 46 -2 435. 2268. 906. o
2294 1 8 46 2 435. 2268. 906. o
2295 2 7 47 -2 44. -907. 1361. <
2295 1 -7 47 2 44. -907. 1361. <
2296 2 -7 47 2 44. -907. 1815. <
2296 1 7 47 -2 44. -907. 1815. <
2297 2 5 47 -2 41. -454. 1815. <
2297 1 -5 47 2 41. -454. 1815. <
2298 2 -5 47 2 41. 1815. 2722. <
2298 1 5 47 -2 41. 1815. 2722. <
2299 2 3 47 -2 83. 0. 1815. <
2299 1 -3 47 2 83. 0. 1815. <
2300 2 -3 47 2 83. 454. 3629. <
2300 1 3 47 -2 83. 454. 3629. <
2301 2 1 47 -2 212. 907. 907. <
2301 1 -1 47 2 212. 907. 907. <
2302 2 -1 47 2 211. 907. 2268. <
2302 1 1 47 -2 211. 907. 2268. <
2303 2 -1 47 -2 211. 907. 1815. <
2303 1 1 47 2 211. 907. 1815. <
2304 2 1 47 2 212. 907. 1361. <
2304 1 -1 47 -2 212. 907. 1361. <
2305 2 -3 47 -2 83. 2268. 1814. <
2305 1 3 47 2 83. 2268. 1814. <
2306 2 3 47 2 83. 454. 1361. <
2306 1 -3 47 -2 83. 454. 1361. <
2307 2 -5 47 -2 41. 6351. 2265. o
2307 1 5 47 2 41. 6351. 2265. o
2308 2 -7 47 -2 44. -454. 1815. <
2308 1 7 47 2 44. -454. 1815. <
2309 3 -2 -48 8 7105. 5444. 1816. o
2309 2 8 48 -2 7105. 5444. 1816. o
2309 1 -8 48 2 7105. 5444. 1816. o
2310 3 2 -48 -8 7164. 8166. 1813. o
2310 2 -8 48 2 7164. 8166. 1813. o
2310 1 8 48 -2 7164. 8166. 1813. o
2311 3 -2 -48 6 55072. 19507. 3268. o
2311 2 6 48 -2 55072. 19507. 3268. o
2311 1 -6 48 2 55072. 19507. 3268. o
2312 3 2 -48 -6 55114. 47180. 3209. o
2312 2 -6 48 2 55114. 47180. 3209. o
2312 1 6 48 -2 55114. 47180. 3209. o
2313 3 -2 -48 4 114445. 135189. 4377. o
2313 2 4 48 -2 114445. 135189. 4377. o
2313 1 -4 48 2 114445. 135189. 4377. o
2314 3 2 -48 -4 114794. 128838. 4433. o
2314 2 -4 48 2 114794. 128838. 4433. o
2314 1 4 48 -2 114794. 128838. 4433. o
2315 3 -2 -48 2 451066. 513085. 619. o
2315 2 2 48 -2 451066. 513085. 619. o
2315 1 -2 48 2 451066. 513085. 619. o
2316 3 -2 -48 0 371320. 332983. 6885. o
2316 2 0 48 -2 371320. 332983. 6885. o
2316 1 0 48 2 371320. 332983. 6885. o
2317 3 2 -48 0 371472. 336159. 5209. o
2317 2 0 48 2 371472. 336159. 5209. o
2317 1 0 48 -2 371472. 336159. 5209. o
2318 3 -2 -48 -2 451208. 483597. 2916. o
2318 2 -2 48 -2 451208. 483597. 2916. o
2318 1 2 48 2 451208. 483597. 2916. o
2319 3 2 -48 2 451193. 638294. 11419. o
2319 2 2 48 2 451193. 638294. 11419. o
2319 1 -2 48 -2 451193. 638294. 11419. o
2320 3 -2 -48 -4 114619. 124302. 4006. o
2320 2 -4 48 -2 114619. 124302. 4006. o
2320 1 4 48 2 114619. 124302. 4006. o
2321 3 -2 -48 -6 55075. 32663. 2372. o
2321 2 -6 48 -2 55075. 32663. 2372. o
2321 1 6 48 2 55075. 32663. 2372. o
2322 3 -2 -48 -8 7125. 5898. 1362. o
2322 2 -8 48 -2 7125. 5898. 1362. o
2322 1 8 48 2 7125. 5898. 1362. o
2323 2 7 49 -2 13. 2722. 1814. <
2323 1 -7 49 2 13. 2722. 1814. <
2324 2 -7 49 2 13. 4990. 2266. o
2324 1 7 49 -2 13. 4990. 2266. o
2325 2 5 49 -2 24. -907. 1815. <
2325 1 -5 49 2 24. -907. 1815. <
2326 2 -5 49 2 24. 0. 2722. <
2326 1 5 49 -2 24. 0. 2722. <
2327 2 3 49 -2 13. 907. 1361. <
2327 1 -3 49 2 13. 907. 1361. <
2328 2 -3 49 2 13. -3176. 3175. <
2328 1 3 49 -2 13. -3176. 3175. <
2329 2 1 49 -2 206. -454. 1361. <
2329 1 -1 49 2 206. -454. 1361. <
2330 2 -1 49 2 207. 907. 2268. <
2330 1 1 49 -2 207. 907. 2268. <
2331 2 -1 49 -2 207. 907. 1815. <
2331 1 1 49 2 207. 907. 1815. <
2332 2 1 49 2 206. -907. 1815. <
2332 1 -1 49 -2 206. -907. 1815. <
2333 2 -3 49 -2 13. 907. 2268. <
2333 1 3 49 2 13. 907. 2268. <
2334 2 3 49 2 13. 0. 1361. <
2334 1 -3 49 -2 13. 0. 1361. <
2335 2 -5 49 -2 24. 3629. 1813. <
2335 1 5 49 2 24. 3629. 1813. <
2336 2 -7 49 -2 13. 2722. 1360. <
2336 1 7 49 2 13. 2722. 1360. <
2337 3 -2 -50 8 2688. 3176. 1814. <
2337 2 8 50 -2 2688. 3176. 1814. <
2337 1 -8 50 2 2688. 3176. 1814. <
2338 3 2 -50 -8 2708. 454. 1815. <
2338 2 -8 50 2 2708. 454. 1815. <
2338 1 8 50 -2 2708. 454. 1815. <
2339 3 -2 -50 6 22121. 12249. 2737. o
2339 2 6 50 -2 22121. 12249. 2737. o
2339 1 -6 50 2 22121. 12249. 2737. o
2340 3 2 -50 -6 22146. 3629. 3191. <
2340 2 -6 50 2 22146. 3629. 3191. <
2340 1 6 50 -2 22146. 3629. 3191. <
2341 3 -2 -50 4 42595. 28580. 2767. o
2341 2 4 50 -2 42595. 28580. 2767. o
2341 1 -4 50 2 42595. 28580. 2767. o
2342 3 2 -50 -4 42909. 50809. 5425. o
2342 2 -4 50 2 42909. 50809. 5425. o
2342 1 4 50 -2 42909. 50809. 5425. o
2343 3 -2 -50 2 208160. 225921. 2829. o
2343 2 2 50 -2 208160. 225921. 2829. o
2343 1 -2 50 2 208160. 225921. 2829. o
2344 3 2 -50 -2 208621. 249964. 5438. o
2344 2 -2 50 2 208621. 249964. 5438. o
2344 1 2 50 -2 208621. 249964. 5438. o
2345 3 -2 -50 0 159157. 140633. 2976. o
2345 2 0 50 -2 159157. 140633. 2976. o
2345 1 0 50 2 159157. 140633. 2976. o
2346 3 2 -50 0 159501. 161048. 3155. o
2346 2 0 50 2 159501. 161048. 3155. o
2346 1 0 50 -2 159501. 161048. 3155. o
2347 3 -2 -50 -2 208404. 212765. 3561. o
2347 2 -2 50 -2 208404. 212765. 3561. o
2347 1 2 50 2 208404. 212765. 3561. o
2348 3 2 -50 2 208377. 224560. 2862. o
2348 2 2 50 2 208377. 224560. 2862. o
2348 1 -2 50 -2 208377. 224560. 2862. o
2349 3 -2 -50 -4 42800. 39468. 2735. o
2349 2 -4 50 -2 42800. 39468. 2735. o
2349 1 4 50 2 42800. 39468. 2735. o
2350 3 -2 -50 -6 22155. 9073. 1840. o
2350 2 -6 50 -2 22155. 9073. 1840. o
2350 1 6 50 2 22155. 9073. 1840. o
2351 3 -2 -50 -8 2701. 1815. 1361. <
2351 2 -8 50 -2 2701. 1815. 1361. <
2351 1 8 50 2 2701. 1815. 1361. <
2352 2 7 51 -2 3. 1815. 1814. <
2352 1 -7 51 2 3. 1815. 1814. <
2353 2 -7 51 2 3. 4083. 2267. <
2353 1 7 51 -2 3. 4083. 2267. <
2354 2 5 51 -2 48. 1361. 1361. <
2354 1 -5 51 2 48. 1361. 1361. <
2355 2 -5 51 2 48. -4990. 3174. <
2355 1 5 51 -2 48. -4990. 3174. <
2356 2 3 51 -2 74. 454. 1815. <
2356 1 -3 51 2 74. 454. 1815. <
2357 2 -3 51 2 74. 3176. 3175. <
2357 1 3 51 -2 74. 3176. 3175. <
2358 2 1 51 -2 187. 907. 1361. <
2358 1 -1 51 2 187. 907. 1361. <
2359 2 -1 51 2 187. -1815. 2722. <
2359 1 1 51 -2 187. -1815. 2722. <
2360 2 -1 51 -2 187. -1361. 1814. <
2360 1 1 51 2 187. -1361. 1814. <
2361 2 1 51 2 187. 0. 1815. <
2361 1 -1 51 -2 187. 0. 1815. <
2362 2 -3 51 -2 74. 2268. 2722. <
2362 1 3 51 2 74. 2268. 2722. <
2363 2 3 51 2 74. 0. 1361. <
2363 1 -3 51 -2 74. 0. 1361. <
2364 2 -5 51 -2 48. 2722. 1814. <
2364 1 5 51 2 48. 2722. 1814. <
2365 2 -7 51 -2 3. 907. 1361. <
2365 1 7 51 2 3. 907. 1361. <
2366 3 -2 -52 8 381. 2722. 1360. <
2366 2 8 52 -2 381. 2722. 1360. <
2366 1 -8 52 2 381. 2722. 1360. <
2367 3 2 -52 -8 380. -454. 1361. <
2367 2 -8 52 2 380. -454. 1361. <
2367 1 8 52 -2 380. -454. 1361. <
2368 3 -2 -52 6 1506. 2268. 1814. <
2368 2 6 52 -2 1506. 2268. 1814. <
2368 1 -6 52 2 1506. 2268. 1814. <
2369 3 2 -52 -6 1503. -2268. 2722. <
2369 2 -6 52 2 1503. -2268. 2722. <
2369 1 6 52 -2 1503. -2268. 2722. <
2370 3 -2 -52 4 4574. 2722. 2269. <
2370 2 4 52 -2 4574. 2722. 2269. <
2370 1 -4 52 2 4574. 2722. 2269. <
2371 3 2 -52 -4 4581. 454. 3176. <
2371 2 -4 52 2 4581. 454. 3176. <
2371 1 4 52 -2 4581. 454. 3176. <
2372 3 -2 -52 2 11701. 10888. 1816. o
2372 2 2 52 -2 11701. 10888. 1816. o
2372 1 -2 52 2 11701. 10888. 1816. o
2373 3 2 -52 -2 11741. 11795. 3629. o
2373 2 -2 52 2 11741. 11795. 3629. o
2373 1 2 52 -2 11741. 11795. 3629. o
2374 3 -2 -52 0 19014. 15424. 1373. o
2374 2 0 52 -2 19014. 15424. 1373. o
2374 1 0 52 2 19014. 15424. 1373. o
2375 3 2 -52 0 19048. 19961. 2266. o
2375 2 0 52 2 19048. 19961. 2266. o
2375 1 0 52 -2 19048. 19961. 2266. o
2376 3 -2 -52 -2 11722. 9073. 2271. o
2376 2 -2 52 -2 11722. 9073. 2271. o
2376 1 2 52 2 11722. 9073. 2271. o
2377 3 2 -52 2 11720. 10888. 1363. o
2377 2 2 52 2 11720. 10888. 1363. o
2377 1 -2 52 -2 11720. 10888. 1363. o
2378 3 -2 -52 -4 4585. 2722. 1362. <
2378 2 -4 52 -2 4585. 2722. 1362. <
2378 1 4 52 2 4585. 2722. 1362. <
2379 3 2 -52 4 4570. 4990. 1361. o
2379 2 4 52 2 4570. 4990. 1361. o
2379 1 -4 52 -2 4570. 4990. 1361. o
2380 3 -2 -52 -6 1510. 1815. 1361. <
2380 2 -6 52 -2 1510. 1815. 1361. <
2380 1 6 52 2 1510. 1815. 1361. <
2381 3 -2 -52 -8 382. -454. 1361. <
2381 2 -8 52 -2 382. -454. 1361. <
2381 1 8 52 2 382. -454. 1361. <
2382 2 7 53 -2 4. 0. 1361. <
2382 1 -7 53 2 4. 0. 1361. <
2383 2 -7 53 2 4. 907. 2268. <
2383 1 7 53 -2 4. 907. 2268. <
2384 2 5 53 -2 214. -2268. 1360. <
2384 1 -5 53 2 214. -2268. 1360. <
2385 2 -5 53 2 216. -2722. 2721. <
2385 1 5 53 -2 216. -2722. 2721. <
2386 2 3 53 -2 427. 0. 1815. <
2386 1 -3 53 2 427. 0. 1815. <
2387 2 -3 53 2 427. -4537. 4082. <
2387 1 3 53 -2 427. -4537. 4082. <
2388 2 1 53 -2 846. 454. 1361. <
2388 1 -1 53 2 846. 454. 1361. <
2389 2 -1 53 2 846. 2268. 2722. <
2389 1 1 53 -2 846. 2268. 2722. <
2390 2 -1 53 -2 846. 4083. 1813. o
2390 1 1 53 2 846. 4083. 1813. o
2391 2 1 53 2 846. 1361. 1361. <
2391 1 -1 53 -2 846. 1361. 1361. <
2392 2 -3 53 -2 427. 907. 1815. <
2392 1 3 53 2 427. 907. 1815. <
2393 2 3 53 2 427. 907. 1361. <
2393 1 -3 53 -2 427. 907. 1361. <
2394 2 -5 53 -2 216. 3176. 1360. o
2394 1 5 53 2 216. 3176. 1360. o
2395 2 5 53 2 214. -454. 2268. <
2395 1 -5 53 -2 214. -454. 2268. <
2396 2 -7 53 -2 4. -907. 907. <
2396 1 7 53 2 4. -907. 907. <
2397 3 -2 -54 8 137. 1815. 1361. <
2397 2 8 54 -2 137. 1815. 1361. <
2397 1 -8 54 2 137. 1815. 1361. <
2398 3 2 -54 -8 136. 1361. 1361. <
2398 2 -8 54 2 136. 1361. 1361. <
2398 1 8 54 -2 136. 1361. 1361. <
2399 3 -2 -54 6 635. 1361. 1814. <
2399 2 6 54 -2 635. 1361. 1814. <
2399 1 -6 54 2 635. 1361. 1814. <
2400 3 2 -54 -6 622. -1361. 2722. <
2400 2 -6 54 2 622. -1361. 2722. <
2400 1 6 54 -2 622. -1361. 2722. <
2401 3 -2 -54 4 2062. 907. 1815. <
2401 2 4 54 -2 2062. 907. 1815. <
2401 1 -4 54 2 2062. 907. 1815. <
2402 3 2 -54 -4 2060. -1361. 3176. <
2402 2 -4 54 2 2060. -1361. 3176. <
2402 1 4 54 -2 2060. -1361. 3176. <
2403 3 -2 -54 2 5222. 6351. 1814. o
2403 2 2 54 -2 5222. 6351. 1814. o
2403 1 -2 54 2 5222. 6351. 1814. o
2404 3 2 -54 -2 5196. 8166. 2720. o
2404 2 -2 54 2 5196. 8166. 2720. o
2404 1 2 54 -2 5196. 8166. 2720. o
2405 3 -2 -54 0 9740. 8166. 1817. o
2405 2 0 54 -2 9740. 8166. 1817. o
2405 1 0 54 2 9740. 8166. 1817. o
2406 3 2 -54 0 9755. 9073. 2269. o
2406 2 0 54 2 9755. 9073. 2269. o
2406 1 0 54 -2 9755. 9073. 2269. o
2407 3 -2 -54 -2 5208. 8619. 2265. o
2407 2 -2 54 -2 5208. 8619. 2265. o
2407 1 2 54 2 5208. 8619. 2265. o
2408 3 2 -54 2 5210. 4083. 1815. o
2408 2 2 54 2 5210. 4083. 1815. o
2408 1 -2 54 -2 5210. 4083. 1815. o
2409 3 -2 -54 -4 2066. 3176. 1360. o
2409 2 -4 54 -2 2066. 3176. 1360. o
2409 1 4 54 2 2066. 3176. 1360. o
2410 3 2 -54 4 2057. 2268. 1361. <
2410 2 4 54 2 2057. 2268. 1361. <
2410 1 -4 54 -2 2057. 2268. 1361. <
2411 3 -2 -54 -6 627. 907. 1361. <
2411 2 -6 54 -2 627. 907. 1361. <
2411 1 6 54 2 627. 907. 1361. <
2412 3 -2 -54 -8 138. 1815. 907. <
2412 2 -8 54 -2 138. 1815. 907. <
2412 1 8 54 2 138. 1815. 907. <
2413 2 7 55 -2 27. 3176. 1360. o
2413 1 -7 55 2 27. 3176. 1360. o
2414 2 -7 55 2 27. 3629. 2267. <
2414 1 7 55 -2 27. 3629. 2267. <
2415 2 5 55 -2 1633. 1361. 1361. <
2415 1 -5 55 2 1633. 1361. 1361. <
2416 2 -5 55 2 1632. 907. 2268. <
2416 1 5 55 -2 1632. 907. 2268. <
2417 2 3 55 -2 4866. 7258. 2266. o
2417 1 -3 55 2 4866. 7258. 2266. o
2418 2 -3 55 2 4864. 2268. 2723. <
2418 1 3 55 -2 4864. 2268. 2723. <
2419 2 1 55 -2 22371. 23590. 1810. o
2419 1 -1 55 2 22371. 23590. 1810. o
2420 2 -1 55 2 22370. 26766. 2711. o
2420 1 1 55 -2 22370. 26766. 2711. o
2421 2 -1 55 -2 22370. 23590. 2265. o
2421 1 1 55 2 22370. 23590. 2265. o
2422 2 1 55 2 22371. 21322. 2271. o
2422 1 -1 55 -2 22371. 21322. 2271. o
2423 2 -3 55 -2 4864. 2722. 1816. <
2423 1 3 55 2 4864. 2722. 1816. <
2424 2 3 55 2 4866. 7712. 1357. o
2424 1 -3 55 -2 4866. 7712. 1357. o
2425 2 -5 55 -2 1632. 907. 1815. <
2425 1 5 55 2 1632. 907. 1815. <
2426 2 5 55 2 1633. 907. 1815. <
2426 1 -5 55 -2 1633. 907. 1815. <
2427 2 -7 55 -2 27. 907. 907. <
2427 1 7 55 2 27. 907. 907. <
2428 3 -2 -56 8 98. 454. 1361. <
2428 2 8 56 -2 98. 454. 1361. <
2428 1 -8 56 2 98. 454. 1361. <
2429 3 2 -56 -8 97. 2722. 2268. <
2429 2 -8 56 2 97. 2722. 2268. <
2429 1 8 56 -2 97. 2722. 2268. <
2430 3 -2 -56 6 579. 907. 1815. <
2430 2 6 56 -2 579. 907. 1815. <
2430 1 -6 56 2 579. 907. 1815. <
2431 3 2 -56 -6 584. 4083. 2267. <
2431 2 -6 56 2 584. 4083. 2267. <
2431 1 6 56 -2 584. 4083. 2267. <
2432 3 -2 -56 4 752. 1361. 1361. <
2432 2 4 56 -2 752. 1361. 1361. <
2432 1 -4 56 2 752. 1361. 1361. <
2433 3 2 -56 -4 745. 4083. 2721. <
2433 2 -4 56 2 745. 4083. 2721. <
2433 1 4 56 -2 745. 4083. 2721. <
2434 3 -2 -56 2 3187. 907. 1815. <
2434 2 2 56 -2 3187. 907. 1815. <
2434 1 -2 56 2 3187. 907. 1815. <
2435 3 2 -56 -2 3199. 2722. 2268. <
2435 2 -2 56 2 3199. 2722. 2268. <
2435 1 2 56 -2 3199. 2722. 2268. <
2436 3 -2 -56 0 3753. 5444. 1813. o
2436 2 0 56 -2 3753. 5444. 1813. o
2436 1 0 56 2 3753. 5444. 1813. o
2437 3 2 -56 0 3750. 7258. 2266. o
2437 2 0 56 2 3750. 7258. 2266. o
2437 1 0 56 -2 3750. 7258. 2266. o
2438 3 -2 -56 -2 3193. 4990. 2267. o
2438 2 -2 56 -2 3193. 4990. 2267. o
2438 1 2 56 2 3193. 4990. 2267. o
2439 3 2 -56 2 3193. 2268. 1361. <
2439 2 2 56 2 3193. 2268. 1361. <
2439 1 -2 56 -2 3193. 2268. 1361. <
2440 3 -2 -56 -4 747. -907. 1361. <
2440 2 -4 56 -2 747. -907. 1361. <
2440 1 4 56 2 747. -907. 1361. <
2441 3 2 -56 4 749. 907. 1361. <
2441 2 4 56 2 749. 907. 1361. <
2441 1 -4 56 -2 749. 907. 1361. <
2442 3 -2 -56 -6 583. 2722. 906. o
2442 2 -6 56 -2 583. 2722. 906. o
2442 1 6 56 2 583. 2722. 906. o
2443 3 -2 -56 -8 97. 2722. 906. o
2443 2 -8 56 -2 97. 2722. 906. o
2443 1 8 56 2 97. 2722. 906. o
2444 2 7 57 -2 16. 907. 1361. <
2444 1 -7 57 2 16. 907. 1361. <
2445 2 -7 57 2 16. 5444. 2266. o
2445 1 7 57 -2 16. 5444. 2266. o
2446 2 5 57 -2 118. 1361. 907. <
2446 1 -5 57 2 118. 1361. 907. <
2447 2 -5 57 2 117. 4083. 2267. <
2447 1 5 57 -2 117. 4083. 2267. <
2448 2 3 57 -2 241. 1361. 1814. <
2448 1 -3 57 2 241. 1361. 1814. <
2449 2 -3 57 2 240. 907. 2268. <
2449 1 3 57 -2 240. 907. 2268. <
2450 2 1 57 -2 474. 454. 1815. <
2450 1 -1 57 2 474. 454. 1815. <
2451 2 -1 57 2 474. -1361. 2268. <
2451 1 1 57 -2 474. -1361. 2268. <
2452 2 -1 57 -2 474. 454. 2268. <
2452 1 1 57 2 474. 454. 2268. <
2453 2 1 57 2 474. -454. 2268. <
2453 1 -1 57 -2 474. -454. 2268. <
2454 2 -3 57 -2 240. 4083. 1813. o
2454 1 3 57 2 240. 4083. 1813. o
2455 2 3 57 2 241. 0. 1361. <
2455 1 -3 57 -2 241. 0. 1361. <
2456 2 -5 57 -2 117. 1815. 1361. <
2456 1 5 57 2 117. 1815. 1361. <
2457 2 5 57 2 118. 454. 1815. <
2457 1 -5 57 -2 118. 454. 1815. <
2458 2 -7 57 -2 16. 907. 907. <
2458 1 7 57 2 16. 907. 907. <
2459 3 -2 -58 8 245. 4083. 1359. o
2459 2 8 58 -2 245. 4083. 1359. o
2459 1 -8 58 2 245. 4083. 1359. o
2460 3 2 -58 -8 243. 0. 1361. <
2460 2 -8 58 2 243. 0. 1361. <
2460 1 8 58 -2 243. 0. 1361. <
2461 3 -2 -58 6 394. 2268. 1814. <
2461 2 6 58 -2 394. 2268. 1814. <
2461 1 -6 58 2 394. 2268. 1814. <
2462 3 2 -58 -6 394. 454. 1815. <
2462 2 -6 58 2 394. 454. 1815. <
2462 1 6 58 -2 394. 454. 1815. <
2463 3 -2 -58 4 606. 1361. 1361. <
2463 2 4 58 -2 606. 1361. 1361. <
2463 1 -4 58 2 606. 1361. 1361. <
2464 3 2 -58 -4 616. 2722. 2268. <
2464 2 -4 58 2 616. 2722. 2268. <
2464 1 4 58 -2 616. 2722. 2268. <
2465 3 -2 -58 2 131. -1361. 2268. <
2465 2 2 58 -2 131. -1361. 2268. <
2465 1 -2 58 2 131. -1361. 2268. <
2466 3 2 -58 -2 144. 2268. 2268. <
2466 2 -2 58 2 144. 2268. 2268. <
2466 1 2 58 -2 144. 2268. 2268. <
2467 3 -2 -58 0 31. -454. 1815. <
2467 2 0 58 -2 31. -454. 1815. <
2467 1 0 58 2 31. -454. 1815. <
2468 3 2 -58 0 47. 4083. 2267. <
2468 2 0 58 2 47. 4083. 2267. <
2468 1 0 58 -2 47. 4083. 2267. <
2469 3 -2 -58 -2 138. -454. 1815. <
2469 2 -2 58 -2 138. -454. 1815. <
2469 1 2 58 2 138. -454. 1815. <
2470 3 2 -58 2 137. -454. 1361. <
2470 2 2 58 2 137. -454. 1361. <
2470 1 -2 58 -2 137. -454. 1361. <
2471 3 -2 -58 -4 613. -454. 1361. <
2471 2 -4 58 -2 613. -454. 1361. <
2471 1 4 58 2 613. -454. 1361. <
2472 3 2 -58 4 609. -454. 1361. <
2472 2 4 58 2 609. -454. 1361. <
2472 1 -4 58 -2 609. -454. 1361. <
2473 3 -2 -58 -6 397. 1815. 907. <
2473 2 -6 58 -2 397. 1815. 907. <
2473 1 6 58 2 397. 1815. 907. <
2474 3 -2 -58 -8 244. 907. 907. <
2474 2 -8 58 -2 244. 907. 907. <
2474 1 8 58 2 244. 907. 907. <
2475 2 7 59 -2 2. 2268. 1360. <
2475 1 -7 59 2 2. 2268. 1360. <
2476 2 -7 59 2 2. -4083. 1813. <
2476 1 7 59 -2 2. -4083. 1813. <
2477 2 5 59 -2 68. -454. 907. <
2477 1 -5 59 2 68. -454. 907. <
2478 2 -5 59 2 69. -1361. 1814. <
2478 1 5 59 -2 69. -1361. 1814. <
2479 2 3 59 -2 133. 1815. 1361. <
2479 1 -3 59 2 133. 1815. 1361. <
2480 2 -3 59 2 134. 0. 1815. <
2480 1 3 59 -2 134. 0. 1815. <
2481 2 1 59 -2 93. 2268. 2268. <
2481 1 -1 59 2 93. 2268. 2268. <
2482 2 -1 59 2 93. 3176. 1814. <
2482 1 1 59 -2 93. 3176. 1814. <
2483 2 -1 59 -2 93. 2268. 1814. <
2483 1 1 59 2 93. 2268. 1814. <
2484 2 1 59 2 93. -454. 1815. <
2484 1 -1 59 -2 93. -454. 1815. <
2485 2 -3 59 -2 134. 907. 1361. <
2485 1 3 59 2 134. 907. 1361. <
2486 2 3 59 2 133. -907. 1361. <
2486 1 -3 59 -2 133. -907. 1361. <
2487 2 -5 59 -2 69. 0. 1361. <
2487 1 5 59 2 69. 0. 1361. <
2488 2 5 59 2 68. 454. 1815. <
2488 1 -5 59 -2 68. 454. 1815. <
2489 2 -7 59 -2 2. 907. 907. <
2489 1 7 59 2 2. 907. 907. <
2490 3 -2 -60 6 10767. 12249. 1812. o
2490 2 6 60 -2 10767. 12249. 1812. o
2490 1 -6 60 2 10767. 12249. 1812. o
2491 3 2 -60 -6 10716. 5898. 1820. o
2491 2 -6 60 2 10716. 5898. 1820. o
2491 1 6 60 -2 10716. 5898. 1820. o
2492 3 -2 -60 4 19647. 19961. 1360. o
2492 2 4 60 -2 19647. 19961. 1360. o
2492 1 -4 60 2 19647. 19961. 1360. o
2493 3 2 -60 -4 19592. 9980. 2734. o
2493 2 -4 60 2 19592. 9980. 2734. o
2493 1 4 60 -2 19592. 9980. 2734. o
2494 3 -2 -60 2 33572. 32663. 1819. o
2494 2 2 60 -2 33572. 32663. 1819. o
2494 1 -2 60 2 33572. 32663. 1819. o
2495 3 2 -60 -2 33565. 30395. 2732. o
2495 2 -2 60 2 33565. 30395. 2732. o
2495 1 2 60 -2 33565. 30395. 2732. o
2496 3 -2 -60 0 31193. 33570. 2259. o
2496 2 0 60 -2 31193. 33570. 2259. o
2496 1 0 60 2 31193. 33570. 2259. o
2497 3 2 -60 0 31218. 33570. 2259. o
2497 2 0 60 2 31218. 33570. 2259. o
2497 1 0 60 -2 31218. 33570. 2259. o
2498 3 -2 -60 -2 33568. 30395. 2280. o
2498 2 -2 60 -2 33568. 30395. 2280. o
2498 1 2 60 2 33568. 30395. 2280. o
2499 3 2 -60 2 33569. 41736. 2230. o
2499 2 2 60 2 33569. 41736. 2230. o
2499 1 -2 60 -2 33569. 41736. 2230. o
2500 3 -2 -60 -4 19634. 14517. 1827. o
2500 2 -4 60 -2 19634. 14517. 1827. o
2500 1 4 60 2 19634. 14517. 1827. o
2501 3 -2 -60 -6 10754. 4083. 1369. o
2501 2 -6 60 -2 10754. 4083. 1369. o
2501 1 6 60 2 10754. 4083. 1369. o
2502 2 7 61 -2 2. -3176. 1360. <
2502 1 -7 61 2 2. -3176. 1360. <
2503 2 -7 61 2 2. 3176. 1814. <
2503 1 7 61 -2 2. 3176. 1814. <
2504 2 5 61 -2 1. 0. 907. <
2504 1 -5 61 2 1. 0. 907. <
2505 2 -5 61 2 1. -907. 1815. <
2505 1 5 61 -2 1. -907. 1815. <
2506 2 3 61 -2 36. 907. 1361. <
2506 1 -3 61 2 36. 907. 1361. <
2507 2 -3 61 2 36. -907. 1815. <
2507 1 3 61 -2 36. -907. 1815. <
2508 2 1 61 -2 93. 0. 1361. <
2508 1 -1 61 2 93. 0. 1361. <
2509 2 -1 61 2 93. 3629. 1813. <
2509 1 1 61 -2 93. 3629. 1813. <
2510 2 -1 61 -2 93. 1361. 1814. <
2510 1 1 61 2 93. 1361. 1814. <
2511 2 1 61 2 93. -1815. 1814. <
2511 1 -1 61 -2 93. -1815. 1814. <
2512 2 -3 61 -2 36. 454. 1361. <
2512 1 3 61 2 36. 454. 1361. <
2513 2 3 61 2 36. -907. 1361. <
2513 1 -3 61 -2 36. -907. 1361. <
2514 2 -5 61 -2 1. 1361. 907. <
2514 1 5 61 2 1. 1361. 907. <
2515 2 5 61 2 1. 454. 1815. <
2515 1 -5 61 -2 1. 454. 1815. <
2516 2 -7 61 -2 2. 1815. 907. <
2516 1 7 61 2 2. 1815. 907. <
2517 3 -2 -62 6 4744. 6805. 1813. o
2517 2 6 62 -2 4744. 6805. 1813. o
2517 1 -6 62 2 4744. 6805. 1813. o
2518 3 2 -62 -6 4707. 1361. 1363. <
2518 2 -6 62 2 4707. 1361. 1363. <
2518 1 6 62 -2 4707. 1361. 1363. <
2519 3 -2 -62 4 4508. 3629. 1362. o
2519 2 4 62 -2 4508. 3629. 1362. o
2519 1 -4 62 2 4508. 3629. 1362. o
2520 3 2 -62 -4 4378. 3176. 1815. <
2520 2 -4 62 2 4378. 3176. 1815. <
2520 1 4 62 -2 4378. 3176. 1815. <
2521 3 -2 -62 2 4006. 1361. 1362. <
2521 2 2 62 -2 4006. 1361. 1362. <
2521 1 -2 62 2 4006. 1361. 1362. <
2522 3 2 -62 -2 3726. 5898. 1813. o
2522 2 -2 62 2 3726. 5898. 1813. o
2522 1 2 62 -2 3726. 5898. 1813. o
2523 3 -2 -62 0 781. 2268. 1360. <
2523 2 0 62 -2 781. 2268. 1360. <
2523 1 0 62 2 781. 2268. 1360. <
2524 3 2 -62 0 611. 3176. 1814. <
2524 2 0 62 2 611. 3176. 1814. <
2524 1 0 62 -2 611. 3176. 1814. <
2525 3 -2 -62 -2 3858. 3176. 1361. o
2525 2 -2 62 -2 3858. 3176. 1361. o
2525 1 2 62 2 3858. 3176. 1361. o
2526 3 2 -62 2 3874. 2722. 1815. <
2526 2 2 62 2 3874. 2722. 1815. <
2526 1 -2 62 -2 3874. 2722. 1815. <
2527 3 -2 -62 -4 4418. 3629. 1362. o
2527 2 -4 62 -2 4418. 3629. 1362. o
2527 1 4 62 2 4418. 3629. 1362. o
2528 3 -2 -62 -6 4715. 4083. 1362. o
2528 2 -6 62 -2 4715. 4083. 1362. o
2528 1 6 62 2 4715. 4083. 1362. o
2529 2 7 63 -2 2. 454. 1361. <
2529 1 -7 63 2 2. 454. 1361. <
2530 2 -7 63 2 2. -1815. 1814. <
2530 1 7 63 -2 2. -1815. 1814. <
2531 2 5 63 -2 4. 1815. 907. <
2531 1 -5 63 2 4. 1815. 907. <
2532 2 -5 63 2 4. 4537. 1813. o
2532 1 5 63 -2 4. 4537. 1813. o
2533 2 3 63 -2 45. 2268. 906. o
2533 1 -3 63 2 45. 2268. 906. o
2534 2 -3 63 2 45. -454. 1815. <
2534 1 3 63 -2 45. -454. 1815. <
2535 2 1 63 -2 148. 1815. 1361. <
2535 1 -1 63 2 148. 1815. 1361. <
2536 2 -1 63 2 148. 1361. 2268. <
2536 1 1 63 -2 148. 1361. 2268. <
2537 2 -1 63 -2 148. 2268. 1360. <
2537 1 1 63 2 148. 2268. 1360. <
2538 2 1 63 2 148. 1361. 1814. <
2538 1 -1 63 -2 148. 1361. 1814. <
2539 2 -3 63 -2 45. 3176. 905. o
2539 1 3 63 2 45. 3176. 905. o
2540 2 3 63 2 45. 454. 1361. <
2540 1 -3 63 -2 45. 454. 1361. <
2541 2 -5 63 -2 4. 1815. 907. <
2541 1 5 63 2 4. 1815. 907. <
2542 2 5 63 2 4. 454. 1361. <
2542 1 -5 63 -2 4. 454. 1361. <
2543 2 -7 63 -2 2. -1361. 907. <
2543 1 7 63 2 2. -1361. 907. <
2544 3 -2 -64 6 321. -907. 1361. <
2544 2 6 64 -2 321. -907. 1361. <
2544 1 -6 64 2 321. -907. 1361. <
2545 3 2 -64 -6 322. 454. 1815. <
2545 2 -6 64 2 322. 454. 1815. <
2545 1 6 64 -2 322. 454. 1815. <
2546 3 -2 -64 4 984. 454. 907. <
2546 2 4 64 -2 984. 454. 907. <
2546 1 -4 64 2 984. 454. 907. <
2547 3 2 -64 -4 979. -907. 1815. <
2547 2 -4 64 2 979. -907. 1815. <
2547 1 4 64 -2 979. -907. 1815. <
2548 3 -2 -64 2 363. 1361. 1361. <
2548 2 2 64 -2 363. 1361. 1361. <
2548 1 -2 64 2 363. 1361. 1361. <
2549 3 2 -64 -2 355. 0. 1815. <
2549 2 -2 64 2 355. 0. 1815. <
2549 1 2 64 -2 355. 0. 1815. <
2550 3 -2 -64 0 1135. 454. 1361. <
2550 2 0 64 -2 1135. 454. 1361. <
2550 1 0 64 2 1135. 454. 1361. <
2551 3 2 -64 0 1124. 2268. 1814. <
2551 2 0 64 2 1124. 2268. 1814. <
2551 1 0 64 -2 1124. 2268. 1814. <
2552 3 -2 -64 -2 359. 907. 907. <
2552 2 -2 64 -2 359. 907. 907. <
2552 1 2 64 2 359. 907. 907. <
2553 3 2 -64 2 359. -907. 1361. <
2553 2 2 64 2 359. -907. 1361. <
2553 1 -2 64 -2 359. -907. 1361. <
2554 3 -2 -64 -4 978. 0. 907. <
2554 2 -4 64 -2 978. 0. 907. <
2554 1 4 64 2 978. 0. 907. <
2555 3 2 -64 4 985. 907. 907. <
2555 2 4 64 2 985. 907. 907. <
2555 1 -4 64 -2 985. 907. 907. <
2556 3 -2 -64 -6 320. 907. 907. <
2556 2 -6 64 -2 320. 907. 907. <
2556 1 6 64 2 320. 907. 907. <
2557 2 7 65 -2 2. 0. 1361. <
2557 1 -7 65 2 2. 0. 1361. <
2558 2 -7 65 2 2. -907. 1361. <
2558 1 7 65 -2 2. -907. 1361. <
2559 2 5 65 -2 7. 0. 907. <
2559 1 -5 65 2 7. 0. 907. <
2560 2 -5 65 2 7. -1361. 1361. <
2560 1 5 65 -2 7. -1361. 1361. <
2561 2 3 65 -2 112. 1361. 907. <
2561 1 -3 65 2 112. 1361. 907. <
2562 2 -3 65 2 112. -1815. 1361. <
2562 1 3 65 -2 112. -1815. 1361. <
2563 2 1 65 -2 429. -454. 1361. <
2563 1 -1 65 2 429. -454. 1361. <
2564 2 -1 65 2 430. -907. 1361. <
2564 1 1 65 -2 430. -907. 1361. <
2565 2 -1 65 -2 430. 1815. 1361. <
2565 1 1 65 2 430. 1815. 1361. <
2566 2 1 65 2 429. 454. 1815. <
2566 1 -1 65 -2 429. 454. 1815. <
2567 2 -3 65 -2 112. 0. 907. <
2567 1 3 65 2 112. 0. 907. <
2568 2 3 65 2 112. 454. 1361. <
2568 1 -3 65 -2 112. 454. 1361. <
2569 2 -5 65 -2 7. -907. 907. <
2569 1 5 65 2 7. -907. 907. <
2570 2 5 65 2 7. 454. 1361. <
2570 1 -5 65 -2 7. 454. 1361. <
2571 2 -7 65 -2 2. 454. 907. <
2571 1 7 65 2 2. 454. 907. <
2572 3 -2 -66 6 170. 0. 1361. <
2572 2 6 66 -2 170. 0. 1361. <
2572 1 -6 66 2 170. 0. 1361. <
2573 3 2 -66 -6 172. 3176. 1360. o
2573 2 -6 66 2 172. 3176. 1360. o
2573 1 6 66 -2 172. 3176. 1360. o
2574 3 -2 -66 4 480. 907. 907. <
2574 2 4 66 -2 480. 907. 907. <
2574 1 -4 66 2 480. 907. 907. <
2575 3 2 -66 -4 488. 2722. 1814. <
2575 2 -4 66 2 488. 2722. 1814. <
2575 1 4 66 -2 488. 2722. 1814. <
2576 3 -2 -66 2 431. 0. 907. <
2576 2 2 66 -2 431. 0. 907. <
2576 1 -2 66 2 431. 0. 907. <
2577 3 2 -66 -2 436. 907. 1361. <
2577 2 -2 66 2 436. 907. 1361. <
2577 1 2 66 -2 436. 907. 1361. <
2578 3 -2 -66 0 538. 0. 1361. <
2578 2 0 66 -2 538. 0. 1361. <
2578 1 0 66 2 538. 0. 1361. <
2579 3 2 -66 0 544. 4083. 1359. o
2579 2 0 66 2 544. 4083. 1359. o
2579 1 0 66 -2 544. 4083. 1359. o
2580 3 -2 -66 -2 434. 907. 907. <
2580 2 -2 66 -2 434. 907. 907. <
2580 1 2 66 2 434. 907. 907. <
2581 3 2 -66 2 433. 0. 1361. <
2581 2 2 66 2 433. 0. 1361. <
2581 1 -2 66 -2 433. 0. 1361. <
2582 3 -2 -66 -4 485. 1815. 907. <
2582 2 -4 66 -2 485. 1815. 907. <
2582 1 4 66 2 485. 1815. 907. <
2583 3 2 -66 4 484. 907. 907. <
2583 2 4 66 2 484. 907. 907. <
2583 1 -4 66 -2 484. 907. 907. <
2584 3 -2 -66 -6 170. 907. 907. <
2584 2 -6 66 -2 170. 907. 907. <
2584 1 6 66 2 170. 907. 907. <
2585 2 7 67 -2 49. 0. 1361. <
2585 1 -7 67 2 49. 0. 1361. <
2586 2 -7 67 2 49. -2268. 1360. <
2586 1 7 67 -2 49. -2268. 1360. <
2587 2 5 67 -2 173. 907. 907. <
2587 1 -5 67 2 173. 907. 907. <
2588 2 -5 67 2 173. 907. 1361. <
2588 1 5 67 -2 173. 907. 1361. <
2589 2 3 67 -2 2706. 2722. 907. o
2589 1 -3 67 2 2706. 2722. 907. o
2590 2 -3 67 2 2707. 3176. 1814. <
2590 1 3 67 -2 2707. 3176. 1814. <
2591 2 1 67 -2 6054. 5444. 1362. o
2591 1 -1 67 2 6054. 5444. 1362. o
2592 2 -1 67 2 6054. 6351. 1361. o
2592 1 1 67 -2 6054. 6351. 1361. o
2593 2 -1 67 -2 6054. 6805. 1360. o
2593 1 1 67 2 6054. 6805. 1360. o
2594 2 1 67 2 6054. 4990. 1815. o
2594 1 -1 67 -2 6054. 4990. 1815. o
2595 2 -3 67 -2 2707. 2722. 907. o
2595 1 3 67 2 2707. 2722. 907. o
2596 2 3 67 2 2706. 4083. 1360. o
2596 1 -3 67 -2 2706. 4083. 1360. o
2597 2 -5 67 -2 173. -907. 907. <
2597 1 5 67 2 173. -907. 907. <
2598 2 5 67 2 173. 454. 1361. <
2598 1 -5 67 -2 173. 454. 1361. <
2599 2 -7 67 -2 49. 454. 907. <
2599 1 7 67 2 49. 454. 907. <
2600 3 -2 -68 6 138. -454. 1361. <
2600 2 6 68 -2 138. -454. 1361. <
2600 1 -6 68 2 138. -454. 1361. <
2601 3 2 -68 -6 138. 454. 1361. <
2601 2 -6 68 2 138. 454. 1361. <
2601 1 6 68 -2 138. 454. 1361. <
2602 3 -2 -68 4 57. 0. 907. <
2602 2 4 68 -2 57. 0. 907. <
2602 1 -4 68 2 57. 0. 907. <
2603 3 2 -68 -4 56. 454. 1361. <
2603 2 -4 68 2 56. 454. 1361. <
2603 1 4 68 -2 56. 454. 1361. <
2604 3 -2 -68 2 130. -454. 907. <
2604 2 2 68 -2 130. -454. 907. <
2604 1 -2 68 2 130. -454. 907. <
2605 3 2 -68 -2 132. -454. 1361. <
2605 2 -2 68 2 132. -454. 1361. <
2605 1 2 68 -2 132. -454. 1361. <
2606 3 -2 -68 0 11. -454. 907. <
2606 2 0 68 -2 11. -454. 907. <
2606 1 0 68 2 11. -454. 907. <
2607 3 2 -68 0 11. 3629. 1813. <
2607 2 0 68 2 11. 3629. 1813. <
2607 1 0 68 -2 11. 3629. 1813. <
2608 3 -2 -68 -2 131. 454. 907. <
2608 2 -2 68 -2 131. 454. 907. <
2608 1 2 68 2 131. 454. 907. <
2609 3 2 -68 2 131. 0. 1361. <
2609 2 2 68 2 131. 0. 1361. <
2609 1 -2 68 -2 131. 0. 1361. <
2610 3 -2 -68 -4 56. 2722. 906. o
2610 2 -4 68 -2 56. 2722. 906. o
2610 1 4 68 2 56. 2722. 906. o
2611 3 2 -68 4 57. 907. 907. <
2611 2 4 68 2 57. 907. 907. <
2611 1 -4 68 -2 57. 907. 907. <
2612 3 -2 -68 -6 138. 2268. 906. o
2612 2 -6 68 -2 138. 2268. 906. o
2612 1 6 68 2 138. 2268. 906. o
2613 2 5 69 -2 24. -454. 907. <
2613 1 -5 69 2 24. -454. 907. <
2614 2 -5 69 2 25. -454. 1361. <
2614 1 5 69 -2 25. -454. 1361. <
2615 2 3 69 -2 275. 454. 907. <
2615 1 -3 69 2 275. 454. 907. <
2616 2 -3 69 2 276. -1815. 1361. <
2616 1 3 69 -2 276. -1815. 1361. <
2617 2 1 69 -2 610. -454. 907. <
2617 1 -1 69 2 610. -454. 907. <
2618 2 -1 69 2 610. 2722. 1360. <
2618 1 1 69 -2 610. 2722. 1360. <
2619 2 -1 69 -2 610. 454. 907. <
2619 1 1 69 2 610. 454. 907. <
2620 2 1 69 2 610. 0. 1815. <
2620 1 -1 69 -2 610. 0. 1815. <
2621 2 -3 69 -2 276. 454. 907. <
2621 1 3 69 2 276. 454. 907. <
2622 2 3 69 2 275. -907. 1361. <
2622 1 -3 69 -2 275. -907. 1361. <
2623 2 -5 69 -2 25. 0. 907. <
2623 1 5 69 2 25. 0. 907. <
2624 2 5 69 2 24. 454. 1361. <
2624 1 -5 69 -2 24. 454. 1361. <
2625 3 -2 -70 6 193. 2722. 1360. <
2625 2 6 70 -2 193. 2722. 1360. <
2625 1 -6 70 2 193. 2722. 1360. <
2626 3 2 -70 -6 194. -2268. 1360. <
2626 2 -6 70 2 194. -2268. 1360. <
2626 1 6 70 -2 194. -2268. 1360. <
2627 3 -2 -70 4 742. 2268. 907. o
2627 2 4 70 -2 742. 2268. 907. o
2627 1 -4 70 2 742. 2268. 907. o
2628 3 2 -70 -4 739. 1815. 1361. <
2628 2 -4 70 2 739. 1815. 1361. <
2628 1 4 70 -2 739. 1815. 1361. <
2629 3 -2 -70 2 1409. 454. 908. <
2629 2 2 70 -2 1409. 454. 908. <
2629 1 -2 70 2 1409. 454. 908. <
2630 3 2 -70 -2 1399. 1361. 1361. <
2630 2 -2 70 2 1399. 1361. 1361. <
2630 1 2 70 -2 1399. 1361. 1361. <
2631 3 -2 -70 0 2409. 4537. 905. o
2631 2 0 70 -2 2409. 4537. 905. o
2631 1 0 70 2 2409. 4537. 905. o
2632 3 2 -70 0 2403. 2268. 1361. <
2632 2 0 70 2 2403. 2268. 1361. <
2632 1 0 70 -2 2403. 2268. 1361. <
2633 3 -2 -70 -2 1404. 1361. 907. <
2633 2 -2 70 -2 1404. 1361. 907. <
2633 1 2 70 2 1404. 1361. 907. <
2634 3 2 -70 2 1404. 907. 1361. <
2634 2 2 70 2 1404. 907. 1361. <
2634 1 -2 70 -2 1404. 907. 1361. <
2635 3 -2 -70 -4 739. 907. 907. <
2635 2 -4 70 -2 739. 907. 907. <
2635 1 4 70 2 739. 907. 907. <
2636 3 2 -70 4 741. 907. 907. <
2636 2 4 70 2 741. 907. 907. <
2636 1 -4 70 -2 741. 907. 907. <
2637 3 -2 -70 -6 193. 454. 907. <
2637 2 -6 70 -2 193. 454. 907. <
2637 1 6 70 2 193. 454. 907. <
2638 2 5 71 -2 14. 454. 907. <
2638 1 -5 71 2 14. 454. 907. <
2639 2 -5 71 2 14. 2722. 1360. <
2639 1 5 71 -2 14. 2722. 1360. <
2640 2 3 71 -2 62. 907. 907. <
2640 1 -3 71 2 62. 907. 907. <
2641 2 -3 71 2 62. -454. 1361. <
2641 1 3 71 -2 62. -454. 1361. <
2642 2 1 71 -2 92. 454. 907. <
2642 1 -1 71 2 92. 454. 907. <
2643 2 -1 71 2 92. 1361. 1361. <
2643 1 1 71 -2 92. 1361. 1361. <
2644 2 -1 71 -2 92. 0. 907. <
2644 1 1 71 2 92. 0. 907. <
2645 2 1 71 2 92. 907. 1815. <
2645 1 -1 71 -2 92. 907. 1815. <
2646 2 -3 71 -2 62. -454. 907. <
2646 1 3 71 2 62. -454. 907. <
2647 2 3 71 2 62. 1361. 1361. <
2647 1 -3 71 -2 62. 1361. 1361. <
2648 2 -5 71 -2 14. 907. 907. <
2648 1 5 71 2 14. 907. 907. <
2649 2 5 71 2 14. -454. 1361. <
2649 1 -5 71 -2 14. -454. 1361. <
2650 3 -2 -72 6 4458. 2722. 1362. <
2650 2 6 72 -2 4458. 2722. 1362. <
2650 1 -6 72 2 4458. 2722. 1362. <
2651 3 2 -72 -6 4475. -2722. 1361. <
2651 2 -6 72 2 4475. -2722. 1361. <
2651 1 6 72 -2 4475. -2722. 1361. <
2652 3 -2 -72 4 14585. 12249. 1367. o
2652 2 4 72 -2 14585. 12249. 1367. o
2652 1 -4 72 2 14585. 12249. 1367. o
2653 3 2 -72 -4 14593. 15878. 1812. o
2653 2 -4 72 2 14593. 15878. 1812. o
2653 1 4 72 -2 14593. 15878. 1812. o
2654 3 -2 -72 2 28253. 30849. 1346. o
2654 2 2 72 -2 28253. 30849. 1346. o
2654 1 -2 72 2 28253. 30849. 1346. o
2655 3 2 -72 -2 28234. 37653. 2230. o
2655 2 -2 72 2 28234. 37653. 2230. o
2655 1 2 72 -2 28234. 37653. 2230. o
2656 3 -2 -72 0 38273. 49902. 1252. o
2656 2 0 72 -2 38273. 49902. 1252. o
2656 1 0 72 2 38273. 49902. 1252. o
2657 3 2 -72 0 38242. 63966. 2094. o
2657 2 0 72 2 38242. 63966. 2094. o
2657 1 0 72 -2 38242. 63966. 2094. o
2658 3 -2 -72 -2 28243. 26312. 1371. o
2658 2 -2 72 -2 28243. 26312. 1371. o
2658 1 2 72 2 28243. 26312. 1371. o
2659 3 2 -72 2 28244. 40375. 1749. o
2659 2 2 72 2 28244. 40375. 1749. o
2659 1 -2 72 -2 28244. 40375. 1749. o
2660 3 -2 -72 -4 14581. 13156. 1365. o
2660 2 -4 72 -2 14581. 13156. 1365. o
2660 1 4 72 2 14581. 13156. 1365. o
2661 3 2 -72 4 14597. 14971. 1360. o
2661 2 4 72 2 14597. 14971. 1360. o
2661 1 -4 72 -2 14597. 14971. 1360. o
2662 3 -2 -72 -6 4460. 0. 909. <
2662 2 -6 72 -2 4460. 0. 909. <
2662 1 6 72 2 4460. 0. 909. <
2663 2 5 73 -2 0. 1815. 907. <
2663 1 -5 73 2 0. 1815. 907. <
2664 2 -5 73 2 0. -907. 1361. <
2664 1 5 73 -2 0. -907. 1361. <
2665 2 3 73 -2 19. 454. 907. <
2665 1 -3 73 2 19. 454. 907. <
2666 2 -3 73 2 19. -454. 1361. <
2666 1 3 73 -2 19. -454. 1361. <
2667 2 1 73 -2 113. 1361. 907. <
2667 1 -1 73 2 113. 1361. 907. <
2668 2 -1 73 2 113. 1361. 1361. <
2668 1 1 73 -2 113. 1361. 1361. <
2669 2 -1 73 -2 113. 0. 907. <
2669 1 1 73 2 113. 0. 907. <
2670 2 1 73 2 113. 1815. 1361. <
2670 1 -1 73 -2 113. 1815. 1361. <
2671 2 -3 73 -2 19. -907. 907. <
2671 1 3 73 2 19. -907. 907. <
2672 2 3 73 2 19. -454. 907. <
2672 1 -3 73 -2 19. -454. 907. <
2673 2 -5 73 -2 0. 1815. 907. <
2673 1 5 73 2 0. 1815. 907. <
2674 2 5 73 2 0. 454. 1361. <
2674 1 -5 73 -2 0. 454. 1361. <
2675 3 -2 -74 6 3031. 907. 908. <
2675 2 6 74 -2 3031. 907. 908. <
2675 1 -6 74 2 3031. 907. 908. <
2676 3 2 -74 -6 3040. 1815. 1362. <
2676 2 -6 74 2 3040. 1815. 1362. <
2676 1 6 74 -2 3040. 1815. 1362. <
2677 3 -2 -74 4 12045. 13156. 903. o
2677 2 4 74 -2 12045. 13156. 903. o
2677 1 -4 74 2 12045. 13156. 903. o
2678 3 2 -74 -4 12103. 9073. 1819. o
2678 2 -4 74 2 12103. 9073. 1819. o
2678 1 4 74 -2 12103. 9073. 1819. o
2679 3 -2 -74 2 30577. 29488. 1367. o
2679 2 2 74 -2 30577. 29488. 1367. o
2679 1 -2 74 2 30577. 29488. 1367. o
2680 3 2 -74 -2 30681. 22229. 2293. o
2680 2 -2 74 2 30681. 22229. 2293. o
2680 1 2 74 -2 30681. 22229. 2293. o
2681 3 -2 -74 0 45026. 42190. 1385. o
2681 2 0 74 -2 45026. 42190. 1385. o
2681 1 0 74 2 45026. 42190. 1385. o
2682 3 2 -74 0 45095. 48995. 2704. o
2682 2 0 74 2 45095. 48995. 2704. o
2682 1 0 74 -2 45095. 48995. 2704. o
2683 3 -2 -74 -2 30632. 29488. 1368. o
2683 2 -2 74 -2 30632. 29488. 1368. o
2683 1 2 74 2 30632. 29488. 1368. o
2684 3 2 -74 2 30626. 50809. 2161. o
2684 2 2 74 2 30626. 50809. 2161. o
2684 1 -2 74 -2 30626. 50809. 2161. o
2685 3 -2 -74 -4 12084. 9073. 1367. o
2685 2 -4 74 -2 12084. 9073. 1367. o
2685 1 4 74 2 12084. 9073. 1367. o
2686 3 2 -74 4 12064. 11341. 1363. o
2686 2 4 74 2 12064. 11341. 1363. o
2686 1 -4 74 -2 12064. 11341. 1363. o
2687 3 -2 -74 -6 3040. 907. 908. <
2687 2 -6 74 -2 3040. 907. 908. <
2687 1 6 74 2 3040. 907. 908. <
2688 2 5 75 -2 4. 1361. 907. <
2688 1 -5 75 2 4. 1361. 907. <
2689 2 -5 75 2 4. 1361. 1361. <
2689 1 5 75 -2 4. 1361. 1361. <
2690 2 3 75 -2 36. 907. 907. <
2690 1 -3 75 2 36. 907. 907. <
2691 2 -3 75 2 36. 907. 1361. <
2691 1 3 75 -2 36. 907. 1361. <
2692 2 1 75 -2 116. 1361. 907. <
2692 1 -1 75 2 116. 1361. 907. <
2693 2 -1 75 2 116. -1361. 1361. <
2693 1 1 75 -2 116. -1361. 1361. <
2694 2 -1 75 -2 116. 454. 907. <
2694 1 1 75 2 116. 454. 907. <
2695 2 1 75 2 116. 0. 1361. <
2695 1 -1 75 -2 116. 0. 1361. <
2696 2 -3 75 -2 36. 907. 907. <
2696 1 3 75 2 36. 907. 907. <
2697 2 3 75 2 36. 907. 907. <
2697 1 -3 75 -2 36. 907. 907. <
2698 2 -5 75 -2 4. 907. 907. <
2698 1 5 75 2 4. 907. 907. <
2699 2 5 75 2 4. -454. 1361. <
2699 1 -5 75 -2 4. -454. 1361. <
2700 3 -2 -76 4 265. 454. 907. <
2700 2 4 76 -2 265. 454. 907. <
2700 1 -4 76 2 265. 454. 907. <
2701 3 2 -76 -4 267. 1361. 1361. <
2701 2 -4 76 2 267. 1361. 1361. <
2701 1 4 76 -2 267. 1361. 1361. <
2702 3 -2 -76 2 191. 2268. 906. o
2702 2 2 76 -2 191. 2268. 906. o
2702 1 -2 76 2 191. 2268. 906. o
2703 3 2 -76 -2 195. -454. 1361. <
2703 2 -2 76 2 195. -454. 1361. <
2703 1 2 76 -2 195. -454. 1361. <
2704 3 -2 -76 0 580. 907. 907. <
2704 2 0 76 -2 580. 907. 907. <
2704 1 0 76 2 580. 907. 907. <
2705 3 2 -76 0 583. 0. 1815. <
2705 2 0 76 2 583. 0. 1815. <
2705 1 0 76 -2 583. 0. 1815. <
2706 3 -2 -76 -2 193. 907. 907. <
2706 2 -2 76 -2 193. 907. 907. <
2706 1 2 76 2 193. 907. 907. <
2707 3 2 -76 2 193. 907. 1815. <
2707 2 2 76 2 193. 907. 1815. <
2707 1 -2 76 -2 193. 907. 1815. <
2708 3 -2 -76 -4 267. 1815. 907. <
2708 2 -4 76 -2 267. 1815. 907. <
2708 1 4 76 2 267. 1815. 907. <
2709 3 2 -76 4 265. 0. 1361. <
2709 2 4 76 2 265. 0. 1361. <
2709 1 -4 76 -2 265. 0. 1361. <
2710 2 5 77 -2 12. 907. 907. <
2710 1 -5 77 2 12. 907. 907. <
2711 2 -5 77 2 12. 1815. 1361. <
2711 1 5 77 -2 12. 1815. 1361. <
2712 2 3 77 -2 72. 0. 907. <
2712 1 -3 77 2 72. 0. 907. <
2713 2 -3 77 2 72. 0. 1361. <
2713 1 3 77 -2 72. 0. 1361. <
2714 2 1 77 -2 208. 1361. 907. <
2714 1 -1 77 2 208. 1361. 907. <
2715 2 -1 77 2 207. 0. 1361. <
2715 1 1 77 -2 207. 0. 1361. <
2716 2 -1 77 -2 207. 0. 907. <
2716 1 1 77 2 207. 0. 907. <
2717 2 1 77 2 208. 454. 1361. <
2717 1 -1 77 -2 208. 454. 1361. <
2718 2 -3 77 -2 72. -907. 907. <
2718 1 3 77 2 72. -907. 907. <
2719 2 3 77 2 72. 907. 907. <
2719 1 -3 77 -2 72. 907. 907. <
2720 2 -5 77 -2 12. -907. 907. <
2720 1 5 77 2 12. -907. 907. <
2721 2 5 77 2 12. 454. 1361. <
2721 1 -5 77 -2 12. 454. 1361. <
2722 3 -2 -78 4 132. 0. 907. <
2722 2 4 78 -2 132. 0. 907. <
2722 1 -4 78 2 132. 0. 907. <
2723 3 2 -78 -4 129. -454. 1361. <
2723 2 -4 78 2 129. -454. 1361. <
2723 1 4 78 -2 129. -454. 1361. <
2724 3 -2 -78 2 272. 0. 907. <
2724 2 2 78 -2 272. 0. 907. <
2724 1 -2 78 2 272. 0. 907. <
2725 3 2 -78 -2 268. 0. 1361. <
2725 2 -2 78 2 268. 0. 1361. <
2725 1 2 78 -2 268. 0. 1361. <
2726 3 -2 -78 0 334. 0. 907. <
2726 2 0 78 -2 334. 0. 907. <
2726 1 0 78 2 334. 0. 907. <
2727 3 2 -78 0 332. 2268. 1360. <
2727 2 0 78 2 332. 2268. 1360. <
2727 1 0 78 -2 332. 2268. 1360. <
2728 3 -2 -78 -2 270. 1815. 907. <
2728 2 -2 78 -2 270. 1815. 907. <
2728 1 2 78 2 270. 1815. 907. <
2729 3 2 -78 2 270. -454. 1361. <
2729 2 2 78 2 270. -454. 1361. <
2729 1 -2 78 -2 270. -454. 1361. <
2730 3 -2 -78 -4 130. 907. 907. <
2730 2 -4 78 -2 130. 907. 907. <
2730 1 4 78 2 130. 907. 907. <
2731 3 2 -78 4 131. 454. 907. <
2731 2 4 78 2 131. 454. 907. <
2731 1 -4 78 -2 131. 454. 907. <
2732 2 5 79 -2 93. 907. 907. <
2732 1 -5 79 2 93. 907. 907. <
2733 2 -5 79 2 93. 454. 1361. <
2733 1 5 79 -2 93. 454. 1361. <
2734 2 3 79 -2 471. 1361. 907. <
2734 1 -3 79 2 471. 1361. 907. <
2735 2 -3 79 2 471. 454. 1361. <
2735 1 3 79 -2 471. 454. 1361. <
2736 2 1 79 -2 1421. 907. 907. <
2736 1 -1 79 2 1421. 907. 907. <
2737 2 -1 79 2 1421. 1815. 1361. <
2737 1 1 79 -2 1421. 1815. 1361. <
2738 2 -1 79 -2 1421. 2268. 907. o
2738 1 1 79 2 1421. 2268. 907. o
2739 2 1 79 2 1421. 3176. 1360. o
2739 1 -1 79 -2 1421. 3176. 1360. o
2740 2 -3 79 -2 471. 1361. 907. <
2740 1 3 79 2 471. 1361. 907. <
2741 2 3 79 2 471. 454. 907. <
2741 1 -3 79 -2 471. 454. 907. <
2742 2 -5 79 -2 93. 907. 907. <
2742 1 5 79 2 93. 907. 907. <
2743 2 5 79 2 93. 454. 1361. <
2743 1 -5 79 -2 93. 454. 1361. <
2744 3 -2 -80 4 28. -454. 907. <
2744 2 4 80 -2 28. -454. 907. <
2744 1 -4 80 2 28. -454. 907. <
2745 3 2 -80 -4 28. 0. 1361. <
2745 2 -4 80 2 28. 0. 1361. <
2745 1 4 80 -2 28. 0. 1361. <
2746 3 -2 -80 2 90. 0. 907. <
2746 2 2 80 -2 90. 0. 907. <
2746 1 -2 80 2 90. 0. 907. <
2747 3 2 -80 -2 90. -1815. 907. <
2747 2 -2 80 2 90. -1815. 907. <
2747 1 2 80 -2 90. -1815. 907. <
2748 3 -2 -80 0 55. 1361. 907. <
2748 2 0 80 -2 55. 1361. 907. <
2748 1 0 80 2 55. 1361. 907. <
2749 3 2 -80 0 55. 1815. 1361. <
2749 2 0 80 2 55. 1815. 1361. <
2749 1 0 80 -2 55. 1815. 1361. <
2750 3 -2 -80 -2 90. -1815. 907. <
2750 2 -2 80 -2 90. -1815. 907. <
2750 1 2 80 2 90. -1815. 907. <
2751 3 2 -80 2 90. 907. 1361. <
2751 2 2 80 2 90. 907. 1361. <
2751 1 -2 80 -2 90. 907. 1361. <
2752 3 -2 -80 -4 28. 454. 907. <
2752 2 -4 80 -2 28. 454. 907. <
2752 1 4 80 2 28. 454. 907. <
2753 3 2 -80 4 28. 0. 907. <
2753 2 4 80 2 28. 0. 907. <
2753 1 -4 80 -2 28. 0. 907. <
2754 2 3 81 -2 209. -454. 907. <
2754 1 -3 81 2 209. -454. 907. <
2755 2 -3 81 2 209. 0. 1361. <
2755 1 3 81 -2 209. 0. 1361. <
2756 2 1 81 -2 598. 1815. 907. <
2756 1 -1 81 2 598. 1815. 907. <
2757 2 -1 81 2 597. -1361. 1361. <
2757 1 1 81 -2 597. -1361. 1361. <
2758 2 -1 81 -2 597. 0. 907. <
2758 1 1 81 2 597. 0. 907. <
2759 2 1 81 2 598. 1361. 1361. <
2759 1 -1 81 -2 598. 1361. 1361. <
2760 2 -3 81 -2 209. 2268. 906. o
2760 1 3 81 2 209. 2268. 906. o
2761 2 3 81 2 209. 0. 907. <
2761 1 -3 81 -2 209. 0. 907. <
2762 3 -2 -82 4 159. 454. 907. <
2762 2 4 82 -2 159. 454. 907. <
2762 1 -4 82 2 159. 454. 907. <
2763 3 2 -82 -4 161. -1361. 1361. <
2763 2 -4 82 2 161. -1361. 1361. <
2763 1 4 82 -2 161. -1361. 1361. <
2764 3 -2 -82 2 185. 454. 907. <
2764 2 2 82 -2 185. 454. 907. <
2764 1 -2 82 2 185. 454. 907. <
2765 3 2 -82 -2 189. 2268. 1360. <
2765 2 -2 82 2 189. 2268. 1360. <
2765 1 2 82 -2 189. 2268. 1360. <
2766 3 -2 -82 0 271. -907. 907. <
2766 2 0 82 -2 271. -907. 907. <
2766 1 0 82 2 271. -907. 907. <
2767 3 2 -82 0 274. 907. 1361. <
2767 2 0 82 2 274. 907. 1361. <
2767 1 0 82 -2 274. 907. 1361. <
2768 3 -2 -82 -2 187. -2268. 906. <
2768 2 -2 82 -2 187. -2268. 906. <
2768 1 2 82 2 187. -2268. 906. <
2769 3 2 -82 2 187. 0. 907. <
2769 2 2 82 2 187. 0. 907. <
2769 1 -2 82 -2 187. 0. 907. <
2770 3 -2 -82 -4 160. 454. 907. <
2770 2 -4 82 -2 160. 454. 907. <
2770 1 4 82 2 160. 454. 907. <
2771 3 2 -82 4 159. 907. 907. <
2771 2 4 82 2 159. 907. 907. <
2771 1 -4 82 -2 159. 907. 907. <
2772 2 3 83 -2 30. 1361. 907. <
2772 1 -3 83 2 30. 1361. 907. <
2773 2 -3 83 2 30. 2268. 1360. <
2773 1 3 83 -2 30. 2268. 1360. <
2774 2 1 83 -2 43. 907. 907. <
2774 1 -1 83 2 43. 907. 907. <
2775 2 -1 83 2 43. 907. 1361. <
2775 1 1 83 -2 43. 907. 1361. <
2776 2 -1 83 -2 43. 454. 907. <
2776 1 1 83 2 43. 454. 907. <
2777 2 1 83 2 43. 1815. 1361. <
2777 1 -1 83 -2 43. 1815. 1361. <
2778 2 -3 83 -2 30. 2268. 906. o
2778 1 3 83 2 30. 2268. 906. o
2779 2 3 83 2 30. 907. 907. <
2779 1 -3 83 -2 30. 907. 907. <
2780 3 -2 -84 2 2610. 2268. 908. o
2780 2 2 84 -2 2610. 2268. 908. o
2780 1 -2 84 2 2610. 2268. 908. o
2781 3 2 -84 -2 2620. 4990. 1359. o
2781 2 -2 84 2 2620. 4990. 1359. o
2781 1 2 84 -2 2620. 4990. 1359. o
2782 3 -2 -84 0 3506. 2722. 908. o
2782 2 0 84 -2 3506. 2722. 908. o
2782 1 0 84 2 3506. 2722. 908. o
2783 3 2 -84 0 3515. 2722. 1361. <
2783 2 0 84 2 3515. 2722. 1361. <
2783 1 0 84 -2 3515. 2722. 1361. <
2784 3 -2 -84 -2 2616. 3629. 906. o
2784 2 -2 84 -2 2616. 3629. 906. o
2784 1 2 84 2 2616. 3629. 906. o
2785 3 2 -84 2 2615. 4083. 906. o
2785 2 2 84 2 2615. 4083. 906. o
2785 1 -2 84 -2 2615. 4083. 906. o
2786 2 3 85 -2 4. 0. 907. <
2786 1 -3 85 2 4. 0. 907. <
2787 2 -3 85 2 4. -454. 907. <
2787 1 3 85 -2 4. -454. 907. <
2788 2 1 85 -2 30. 0. 907. <
2788 1 -1 85 2 30. 0. 907. <
2789 2 -1 85 2 30. 2268. 906. o
2789 1 1 85 -2 30. 2268. 906. o
2790 2 -1 85 -2 30. 1361. 907. <
2790 1 1 85 2 30. 1361. 907. <
2791 2 1 85 2 30. 907. 907. <
2791 1 -1 85 -2 30. 907. 907. <
2792 2 -3 85 -2 4. -454. 907. <
2792 1 3 85 2 4. -454. 907. <
2793 2 3 85 2 4. 907. 907. <
2793 1 -3 85 -2 4. 907. 907. <
2794 3 -2 -86 2 254. -454. 907. <
2794 2 2 86 -2 254. -454. 907. <
2794 1 -2 86 2 254. -454. 907. <
2795 3 2 -86 -2 223. 1361. 1361. <
2795 2 -2 86 2 223. 1361. 1361. <
2795 1 2 86 -2 223. 1361. 1361. <
2796 3 -2 -86 0 144. -454. 907. <
2796 2 0 86 -2 144. -454. 907. <
2796 1 0 86 2 144. -454. 907. <
2797 3 2 -86 0 124. 454. 1361. <
2797 2 0 86 2 124. 454. 1361. <
2797 1 0 86 -2 124. 454. 1361. <
2798 3 -2 -86 -2 238. 907. 907. <
2798 2 -2 86 -2 238. 907. 907. <
2798 1 2 86 2 238. 907. 907. <
2799 3 2 -86 2 239. 0. 907. <
2799 2 2 86 2 239. 0. 907. <
2799 1 -2 86 -2 239. 0. 907. <
2800 2 3 87 -2 7. 454. 907. <
2800 1 -3 87 2 7. 454. 907. <
2801 2 -3 87 2 7. 2268. 906. o
2801 1 3 87 -2 7. 2268. 906. o
2802 2 1 87 -2 24. 454. 907. <
2802 1 -1 87 2 24. 454. 907. <
2803 2 -1 87 2 24. -907. 907. <
2803 1 1 87 -2 24. -907. 907. <
2804 2 -1 87 -2 24. 1361. 907. <
2804 1 1 87 2 24. 1361. 907. <
2805 2 1 87 2 24. 1361. 907. <
2805 1 -1 87 -2 24. 1361. 907. <
2806 2 -3 87 -2 7. 2722. 451. o
2806 1 3 87 2 7. 2722. 451. o
2807 2 3 87 2 7. 1361. 907. <
2807 1 -3 87 -2 7. 1361. 907. <
2808 3 -2 -88 2 114. 0. 454. <
2808 2 2 88 -2 114. 0. 454. <
2808 1 -2 88 2 114. 0. 454. <
2809 3 2 -88 -2 113. 2722. 906. o
2809 2 -2 88 2 113. 2722. 906. o
2809 1 2 88 -2 113. 2722. 906. o
2810 3 -2 -88 0 201. -454. 907. <
2810 2 0 88 -2 201. -454. 907. <
2810 1 0 88 2 201. -454. 907. <
2811 3 2 -88 0 200. 907. 907. <
2811 2 0 88 2 200. 907. 907. <
2811 1 0 88 -2 200. 907. 907. <
2812 3 -2 -88 -2 113. 0. 907. <
2812 2 -2 88 -2 113. 0. 907. <
2812 1 2 88 2 113. 0. 907. <
2813 3 2 -88 2 113. 1815. 907. <
2813 2 2 88 2 113. 1815. 907. <
2813 1 -2 88 -2 113. 1815. 907. <
2814 2 1 89 -2 42. 907. 907. <
2814 1 -1 89 2 42. 907. 907. <
2815 2 -1 89 2 42. -1361. 907. <
2815 1 1 89 -2 42. -1361. 907. <
2816 2 -1 89 -2 42. 454. 907. <
2816 1 1 89 2 42. 454. 907. <
2817 2 1 89 2 42. 454. 907. <
2817 1 -1 89 -2 42. 454. 907. <
2818 3 -2 -90 0 39. 454. 454. <
2818 2 0 90 -2 39. 454. 454. <
2818 1 0 90 2 39. 454. 454. <
2819 3 2 -90 0 40. 907. 453. <
2819 2 0 90 2 40. 907. 453. <
2819 1 0 90 -2 40. 907. 453. <
2820 3 -3 -1 9 25611. 14971. 3192. o
2820 2 9 1 -3 25611. 14971. 3192. o
2820 1 -9 1 3 25611. 14971. 3192. o
2821 3 3 -1 -9 25172. 21776. 1376. o
2821 2 -9 1 3 25172. 21776. 1376. o
2821 1 9 1 -3 25172. 21776. 1376. o
2822 3 -3 -1 7 26622. 26766. 2268. o
2822 2 7 1 -3 26622. 26766. 2268. o
2822 1 -7 1 3 26622. 26766. 2268. o
2823 3 3 -1 -7 27897. 32663. 1332. o
2823 2 -7 1 3 27897. 32663. 1332. o
2823 1 7 1 -3 27897. 32663. 1332. o
2824 3 3 -1 -5 441458. 481782. 9376. o
2824 2 -5 1 3 441458. 481782. 9376. o
2824 1 5 1 -3 441458. 481782. 9376. o
2825 3 -3 -1 3 522959. 559358. 10940. o
2825 2 3 1 -3 522959. 559358. 10940. o
2825 1 -3 1 3 522959. 559358. 10940. o
2826 3 3 -1 -3 527851. 542572. 961. o
2826 2 -3 1 3 527851. 542572. 961. o
2826 1 3 1 -3 527851. 542572. 961. o
2827 3 -3 -1 1 1574250. 1603670. 32072. o
2827 2 1 1 -3 1574250. 1603670. 32072. o
2827 1 -1 1 3 1574250. 1603670. 32072. o
2828 3 -3 -1 -1 1571950. 1592330. 2768. o
2828 2 -1 1 -3 1571950. 1592330. 2768. o
2828 1 1 1 3 1571950. 1592330. 2768. o
2829 3 3 -1 1 1574580. 1653120. 32402. o
2829 2 1 1 3 1574580. 1653120. 32402. o
2829 1 -1 1 -3 1574580. 1653120. 32402. o
2830 3 -3 -1 -3 525545. 548016. 10899. o
2830 2 -3 1 -3 525545. 548016. 10899. o
2830 1 3 1 3 525545. 548016. 10899. o
2831 3 3 -1 3 525264. 556182. 11052. o
2831 2 3 1 3 525264. 556182. 11052. o
2831 1 -3 1 -3 525264. 556182. 11052. o
2832 3 -3 -1 -5 442584. 471348. 9324. o
2832 2 -5 1 -3 442584. 471348. 9324. o
2832 1 5 1 3 442584. 471348. 9324. o
2833 3 -3 -1 -7 26976. 19054. 2288. o
2833 2 -7 1 -3 26976. 19054. 2288. o
2833 1 7 1 3 26976. 19054. 2288. o
2834 3 -3 -1 -9 25535. 26766. 1355. o
2834 2 -9 1 -3 25535. 26766. 1355. o
2834 1 9 1 3 25535. 26766. 1355. o
2835 2 10 2 -3 51. -454. 1815. <
2835 1 -10 2 3 51. -454. 1815. <
2836 2 -10 2 3 51. 907. 453. <
2836 1 10 2 -3 51. 907. 453. <
2837 2 8 2 -3 306. -1361. 2722. <
2837 1 -8 2 3 306. -1361. 2722. <
2838 2 -8 2 3 306. -454. 454. <
2838 1 8 2 -3 306. -454. 454. <
2839 2 6 2 -3 843. 2268. 907. o
2839 1 -6 2 3 843. 2268. 907. o
2840 2 -6 2 3 841. 907. 907. <
2840 1 6 2 -3 841. 907. 907. <
2841 2 4 2 -3 1501. 1361. 907. <
2841 1 -4 2 3 1501. 1361. 907. <
2842 2 -4 2 3 1506. 454. 454. <
2842 1 4 2 -3 1506. 454. 454. <
2843 2 2 2 -3 1504. 1815. 453. o
2843 1 -2 2 3 1504. 1815. 453. o
2844 2 -2 2 3 1502. 1361. 454. o
2844 1 2 2 -3 1502. 1361. 454. o
2845 2 0 2 -3 662. 454. 454. <
2845 1 0 2 3 662. 454. 454. <
2846 2 0 2 3 662. 454. 454. <
2846 1 0 2 -3 662. 454. 454. <
2847 2 -2 2 -3 1502. 2722. 452. o
2847 1 2 2 3 1502. 2722. 452. o
2848 2 2 2 3 1504. 1815. 453. o
2848 1 -2 2 -3 1504. 1815. 453. o
2849 2 -4 2 -3 1506. 2268. 453. o
2849 1 4 2 3 1506. 2268. 453. o
2850 2 -6 2 -3 841. -454. 907. <
2850 1 6 2 3 841. -454. 907. <
2851 2 -8 2 -3 306. 907. 1361. <
2851 1 8 2 3 306. 907. 1361. <
2852 2 -10 2 -3 51. 0. 907. <
2852 1 10 2 3 51. 0. 907. <
2853 3 -3 -3 9 4211. 2722. 2722. <
2853 2 9 3 -3 4211. 2722. 2722. <
2853 1 -9 3 3 4211. 2722. 2722. <
2854 3 3 -3 -9 4151. 4083. 907. o
2854 2 -9 3 3 4151. 4083. 907. o
2854 1 9 3 -3 4151. 4083. 907. o
2855 3 -3 -3 7 1699. 4537. 1813. o
2855 2 7 3 -3 1699. 4537. 1813. o
2855 1 -7 3 3 1699. 4537. 1813. o
2856 3 3 -3 -7 1822. 3629. 906. o
2856 2 -7 3 3 1822. 3629. 906. o
2856 1 7 3 -3 1822. 3629. 906. o
2857 3 -3 -3 5 24373. 11795. 1844. o
2857 2 5 3 -3 24373. 11795. 1844. o
2857 1 -5 3 3 24373. 11795. 1844. o
2858 3 3 -3 -5 24102. 29488. 862. o
2858 2 -5 3 3 24102. 29488. 862. o
2858 1 5 3 -3 24102. 29488. 862. o
2859 3 -3 -3 3 37735. 41283. 864. o
2859 2 3 3 -3 37735. 41283. 864. o
2859 1 -3 3 3 37735. 41283. 864. o
2860 3 3 -3 -3 38052. 40375. 880. o
2860 2 -3 3 3 38052. 40375. 880. o
2860 1 3 3 -3 38052. 40375. 880. o
2861 3 -3 -3 1 95701. 78029. 1271. o
2861 2 1 3 -3 95701. 78029. 1271. o
2861 1 -1 3 3 95701. 78029. 1271. o
2862 3 3 -3 -1 95092. 82565. 1184. o
2862 2 -1 3 3 95092. 82565. 1184. o
2862 1 1 3 -3 95092. 82565. 1184. o
2863 3 -3 -3 -1 95227. 77122. 1275. o
2863 2 -1 3 -3 95227. 77122. 1275. o
2863 1 1 3 3 95227. 77122. 1275. o
2864 3 3 -3 1 95567. 86195. 1516. o
2864 2 1 3 3 95567. 86195. 1516. o
2864 1 -1 3 -3 95567. 86195. 1516. o
2865 3 -3 -3 -3 37903. 44912. 815. o
2865 2 -3 3 -3 37903. 44912. 815. o
2865 1 3 3 3 37903. 44912. 815. o
2866 3 3 -3 3 37885. 46273. 793. o
2866 2 3 3 3 37885. 46273. 793. o
2866 1 -3 3 -3 37885. 46273. 793. o
2867 3 -3 -3 -5 24313. 48995. 535. o
2867 2 -5 3 -3 24313. 48995. 535. o
2867 1 5 3 3 24313. 48995. 535. o
2868 3 3 -3 5 24162. 21322. 2276. o
2868 2 5 3 3 24162. 21322. 2276. o
2868 1 -5 3 -3 24162. 21322. 2276. o
2869 3 -3 -3 -7 1708. 4537. 2267. <
2869 2 -7 3 -3 1708. 4537. 2267. <
2869 1 7 3 3 1708. 4537. 2267. <
2870 3 -3 -3 -9 4208. 5444. 905. o
2870 2 -9 3 -3 4208. 5444. 905. o
2870 1 9 3 3 4208. 5444. 905. o
2871 2 10 4 -3 26. 1361. 1814. <
2871 1 -10 4 3 26. 1361. 1814. <
2872 2 -10 4 3 26. 454. 454. <
2872 1 10 4 -3 26. 454. 454. <
2873 2 8 4 -3 206. 3176. 2268. <
2873 1 -8 4 3 206. 3176. 2268. <
2874 2 -8 4 3 205. -454. 454. <
2874 1 8 4 -3 205. -454. 454. <
2875 2 6 4 -3 521. 907. 907. <
2875 1 -6 4 3 521. 907. 907. <
2876 2 -6 4 3 528. 907. 453. <
2876 1 6 4 -3 528. 907. 453. <
2877 2 4 4 -3 3884. 4083. 907. o
2877 1 -4 4 3 3884. 4083. 907. o
2878 2 -4 4 3 3892. 5444. 449. o
2878 1 4 4 -3 3892. 5444. 449. o
2879 2 2 4 -3 4636. 8166. 900. o
2879 1 -2 4 3 4636. 8166. 900. o
2880 2 -2 4 3 4635. 5898. 450. o
2880 1 2 4 -3 4635. 5898. 450. o
2881 2 0 4 -3 7807. 8166. 906. o
2881 1 0 4 3 7807. 8166. 906. o
2882 2 0 4 3 7807. 7258. 456. o
2882 1 0 4 -3 7807. 7258. 456. o
2883 2 -2 4 -3 4635. 6351. 448. o
2883 1 2 4 3 4635. 6351. 448. o
2884 2 2 4 3 4636. 4990. 453. o
2884 1 -2 4 -3 4636. 4990. 453. o
2885 2 -4 4 -3 3892. 5444. 905. o
2885 1 4 4 3 3892. 5444. 905. o
2886 2 -6 4 -3 528. 1361. 907. <
2886 1 6 4 3 528. 1361. 907. <
2887 2 -8 4 -3 205. 454. 1815. <
2887 1 8 4 3 205. 454. 1815. <
2888 2 -10 4 -3 26. 454. 907. <
2888 1 10 4 3 26. 454. 907. <
2889 3 -3 -5 9 1487. 4083. 3175. <
2889 2 9 5 -3 1487. 4083. 3175. <
2889 1 -9 5 3 1487. 4083. 3175. <
2890 3 3 -5 -9 1474. 2268. 453. o
2890 2 -9 5 3 1474. 2268. 453. o
2890 1 9 5 -3 1474. 2268. 453. o
2891 3 -3 -5 7 310. 0. 1361. <
2891 2 7 5 -3 310. 0. 1361. <
2891 1 -7 5 3 310. 0. 1361. <
2892 3 3 -5 -7 318. 907. 453. <
2892 2 -7 5 3 318. 907. 453. <
2892 1 7 5 -3 318. 907. 453. <
2893 3 -3 -5 5 2732. 3629. 1814. <
2893 2 5 5 -3 2732. 3629. 1814. <
2893 1 -5 5 3 2732. 3629. 1814. <
2894 3 3 -5 -5 2669. 1815. 455. o
2894 2 -5 5 3 2669. 1815. 455. o
2894 1 5 5 -3 2669. 1815. 455. o
2895 3 -3 -5 3 4454. 3629. 456. o
2895 2 3 5 -3 4454. 3629. 456. o
2895 1 -3 5 3 4454. 3629. 456. o
2896 3 3 -5 -3 4462. 3629. 456. o
2896 2 -3 5 3 4462. 3629. 456. o
2896 1 3 5 -3 4462. 3629. 456. o
2897 3 -3 -5 1 5111. 5444. 907. o
2897 2 1 5 -3 5111. 5444. 907. o
2897 1 -1 5 3 5111. 5444. 907. o
2898 3 3 -5 -1 5066. 4537. 455. o
2898 2 -1 5 3 5066. 4537. 455. o
2898 1 1 5 -3 5066. 4537. 455. o
2899 3 -3 -5 -1 5072. 6351. 905. o
2899 2 -1 5 -3 5072. 6351. 905. o
2899 1 1 5 3 5072. 6351. 905. o
2900 3 3 -5 1 5105. 7258. 903. o
2900 2 1 5 3 5105. 7258. 903. o
2900 1 -1 5 -3 5105. 7258. 903. o
2901 3 -3 -5 -3 4458. 4990. 907. o
2901 2 -3 5 -3 4458. 4990. 907. o
2901 1 3 5 3 4458. 4990. 907. o
2902 3 3 -5 3 4458. 4537. 907. o
2902 2 3 5 3 4458. 4537. 907. o
2902 1 -3 5 -3 4458. 4537. 907. o
2903 3 -3 -5 -5 2707. 2722. 454. o
2903 2 -5 5 -3 2707. 2722. 454. o
2903 1 5 5 3 2707. 2722. 454. o
2904 3 3 -5 5 2695. 3176. 907. o
2904 2 5 5 3 2695. 3176. 907. o
2904 1 -5 5 -3 2695. 3176. 907. o
2905 3 -3 -5 -7 321. 1815. 1361. <
2905 2 -7 5 -3 321. 1815. 1361. <
2905 1 7 5 3 321. 1815. 1361. <
2906 3 -3 -5 -9 1480. 1815. 907. <
2906 2 -9 5 -3 1480. 1815. 907. <
2906 1 9 5 3 1480. 1815. 907. <
2907 2 10 6 -3 34. 2268. 1814. <
2907 1 -10 6 3 34. 2268. 1814. <
2908 2 -10 6 3 34. 907. 453. <
2908 1 10 6 -3 34. 907. 453. <
2909 2 8 6 -3 678. 454. 2722. <
2909 1 -8 6 3 678. 454. 2722. <
2910 2 -8 6 3 678. 907. 454. <
2910 1 8 6 -3 678. 907. 454. <
2911 2 6 6 -3 245. 907. 907. <
2911 1 -6 6 3 245. 907. 907. <
2912 2 -6 6 3 244. 907. 453. <
2912 1 6 6 -3 244. 907. 453. <
2913 2 4 6 -3 75976. 76214. 1812. o
2913 1 -4 6 3 75976. 76214. 1812. o
2914 2 -4 6 3 75981. 83926. 692. o
2914 1 4 6 -3 75981. 83926. 692. o
2915 2 2 6 -3 76168. 76214. 906. o
2915 1 -2 6 3 76168. 76214. 906. o
2916 2 -2 6 3 76162. 77122. 885. o
2916 1 2 6 -3 76162. 77122. 885. o
2917 2 0 6 -3 637102. 606538. 3899. o
2917 1 0 6 3 637102. 606538. 3899. o
2918 2 0 6 3 637103. 614250. 3567. o
2918 1 0 6 -3 637103. 614250. 3567. o
2919 2 -2 6 -3 76162. 78936. 841. o
2919 1 2 6 3 76162. 78936. 841. o
2920 2 2 6 3 76168. 78936. 841. o
2920 1 -2 6 -3 76168. 78936. 841. o
2921 2 -4 6 -3 75981. 74400. 941. o
2921 1 4 6 3 75981. 74400. 941. o
2922 2 -6 6 -3 244. 907. 907. <
2922 1 6 6 3 244. 907. 907. <
2923 2 -8 6 -3 678. 0. 1815. <
2923 1 8 6 3 678. 0. 1815. <
2924 2 -10 6 -3 34. 907. 453. <
2924 1 10 6 3 34. 907. 453. <
2925 3 -3 -7 9 1507. 4083. 2721. <
2925 2 9 7 -3 1507. 4083. 2721. <
2925 1 -9 7 3 1507. 4083. 2721. <
2926 3 3 -7 -9 1495. 1361. 907. <
2926 2 -9 7 3 1495. 1361. 907. <
2926 1 9 7 -3 1495. 1361. 907. <
2927 3 -3 -7 7 433. 907. 1815. <
2927 2 7 7 -3 433. 907. 1815. <
2927 1 -7 7 3 433. 907. 1815. <
2928 3 3 -7 -7 481. 1815. 907. <
2928 2 -7 7 3 481. 1815. 907. <
2928 1 7 7 -3 481. 1815. 907. <
2929 3 3 -7 -5 3666. 2722. 908. o
2929 2 -5 7 3 3666. 2722. 908. o
2929 1 5 7 -3 3666. 2722. 908. o
2930 3 -3 -7 3 2704. 3176. 453. o
2930 2 3 7 -3 2704. 3176. 453. o
2930 1 -3 7 3 2704. 3176. 453. o
2931 3 3 -7 -3 2792. 3629. 452. o
2931 2 -3 7 3 2792. 3629. 452. o
2931 1 3 7 -3 2792. 3629. 452. o
2932 3 -3 -7 1 3450. 2722. 455. o
2932 2 1 7 -3 3450. 2722. 455. o
2932 1 -1 7 3 3450. 2722. 455. o
2933 3 3 -7 -1 3356. 3629. 453. o
2933 2 -1 7 3 3356. 3629. 453. o
2933 1 1 7 -3 3356. 3629. 453. o
2934 3 -3 -7 -1 3413. 3629. 907. o
2934 2 -1 7 -3 3413. 3629. 907. o
2934 1 1 7 3 3413. 3629. 907. o
2935 3 3 -7 1 3394. 3629. 453. o
2935 2 1 7 3 3394. 3629. 453. o
2935 1 -1 7 -3 3394. 3629. 453. o
2936 3 -3 -7 -3 2751. 3176. 453. o
2936 2 -3 7 -3 2751. 3176. 453. o
2936 1 3 7 3 2751. 3176. 453. o
2937 3 3 -7 3 2746. 3629. 906. o
2937 2 3 7 3 2746. 3629. 906. o
2937 1 -3 7 -3 2746. 3629. 906. o
2938 3 -3 -7 -5 3673. 2722. 455. o
2938 2 -5 7 -3 3673. 2722. 455. o
2938 1 5 7 3 3673. 2722. 455. o
2939 3 3 -7 5 3689. 4083. 1814. o
2939 2 5 7 3 3689. 4083. 1814. o
2939 1 -5 7 -3 3689. 4083. 1814. o
2940 3 -3 -7 -7 447. 1815. 1814. <
2940 2 -7 7 -3 447. 1815. 1814. <
2940 1 7 7 3 447. 1815. 1814. <
2941 3 -3 -7 -9 1501. 1361. 907. <
2941 2 -9 7 -3 1501. 1361. 907. <
2941 1 9 7 3 1501. 1361. 907. <
2942 2 10 8 -3 153. 1361. 1814. <
2942 1 -10 8 3 153. 1361. 1814. <
2943 2 -10 8 3 154. 1361. 907. <
2943 1 10 8 -3 154. 1361. 907. <
2944 2 8 8 -3 661. 4537. 3175. <
2944 1 -8 8 3 661. 4537. 3175. <
2945 2 -8 8 3 656. 454. 454. <
2945 1 8 8 -3 656. 454. 454. <
2946 2 6 8 -3 733. 454. 907. <
2946 1 -6 8 3 733. 454. 907. <
2947 2 -6 8 3 741. 907. 454. <
2947 1 6 8 -3 741. 907. 454. <
2948 2 -4 8 3 8055. 6805. 459. o
2948 1 4 8 -3 8055. 6805. 459. o
2949 2 2 8 -3 305. 2722. 451. o
2949 1 -2 8 3 305. 2722. 451. o
2950 2 -2 8 3 307. 907. 453. <
2950 1 2 8 -3 307. 907. 453. <
2951 2 0 8 -3 12321. 8166. 919. o
2951 1 0 8 3 12321. 8166. 919. o
2952 2 0 8 3 12321. 9980. 468. o
2952 1 0 8 -3 12321. 9980. 468. o
2953 2 -2 8 -3 307. 1815. 907. <
2953 1 2 8 3 307. 1815. 907. <
2954 2 2 8 3 305. 907. 453. <
2954 1 -2 8 -3 305. 907. 453. <
2955 2 -4 8 -3 8055. 11341. 897. o
2955 1 4 8 3 8055. 11341. 897. o
2956 2 4 8 3 8091. 4537. 1365. o
2956 1 -4 8 -3 8091. 4537. 1365. o
2957 2 -6 8 -3 741. 1361. 907. <
2957 1 6 8 3 741. 1361. 907. <
2958 2 -8 8 -3 656. 1361. 1361. <
2958 1 8 8 3 656. 1361. 1361. <
2959 2 -10 8 -3 154. 0. 907. <
2959 1 10 8 3 154. 0. 907. <
2960 3 -3 -9 9 3866. 2722. 3176. <
2960 2 9 9 -3 3866. 2722. 3176. <
2960 1 -9 9 3 3866. 2722. 3176. <
2961 3 3 -9 -9 3802. 4537. 906. o
2961 2 -9 9 3 3802. 4537. 906. o
2961 1 9 9 -3 3802. 4537. 906. o
2962 3 -3 -9 7 2153. 2722. 1361. <
2962 2 7 9 -3 2153. 2722. 1361. <
2962 1 -7 9 3 2153. 2722. 1361. <
2963 3 3 -9 -7 2297. 3629. 451. o
2963 2 -7 9 3 2297. 3629. 451. o
2963 1 7 9 -3 2297. 3629. 451. o
2964 3 -3 -9 5 20906. 17693. 1823. o
2964 2 5 9 -3 20906. 17693. 1823. o
2964 1 -5 9 3 20906. 17693. 1823. o
2965 3 3 -9 -5 20631. 23136. 1350. o
2965 2 -5 9 3 20631. 23136. 1350. o
2965 1 5 9 -3 20631. 23136. 1350. o
2966 3 -3 -9 3 16563. 21776. 876. o
2966 2 3 9 -3 16563. 21776. 876. o
2966 1 -3 9 3 16563. 21776. 876. o
2967 3 3 -9 -3 16941. 20868. 884. o
2967 2 -3 9 3 16941. 20868. 884. o
2967 1 3 9 -3 16941. 20868. 884. o
2968 3 -3 -9 1 46129. 39468. 986. o
2968 2 1 9 -3 46129. 39468. 986. o
2968 1 -1 9 3 46129. 39468. 986. o
2969 3 3 -9 -1 45349. 38561. 985. o
2969 2 -1 9 3 45349. 38561. 985. o
2969 1 1 9 -3 45349. 38561. 985. o
2970 3 -3 -9 -1 45609. 39014. 984. o
2970 2 -1 9 -3 45609. 39014. 984. o
2970 1 1 9 3 45609. 39014. 984. o
2971 3 3 -9 1 45869. 40375. 973. o
2971 2 1 9 3 45869. 40375. 973. o
2971 1 -1 9 -3 45869. 40375. 973. o
2972 3 -3 -9 -3 16763. 20414. 886. o
2972 2 -3 9 -3 16763. 20414. 886. o
2972 1 3 9 3 16763. 20414. 886. o
2973 3 3 -9 3 16741. 21322. 880. o
2973 2 3 9 3 16741. 21322. 880. o
2973 1 -3 9 -3 16741. 21322. 880. o
2974 3 -3 -9 -5 20832. 25405. 875. o
2974 2 -5 9 -3 20832. 25405. 875. o
2974 1 5 9 3 20832. 25405. 875. o
2975 3 3 -9 5 20705. 17239. 1824. o
2975 2 5 9 3 20705. 17239. 1824. o
2975 1 -5 9 -3 20705. 17239. 1824. o
2976 3 -3 -9 -7 2154. 2722. 1361. <
2976 2 -7 9 -3 2154. 2722. 1361. <
2976 1 7 9 3 2154. 2722. 1361. <
2977 3 -3 -9 -9 3866. 2722. 908. o
2977 2 -9 9 -3 3866. 2722. 908. o
2977 1 9 9 3 3866. 2722. 908. o
2978 2 10 10 -3 166. -1361. 1814. <
2978 1 -10 10 3 166. -1361. 1814. <
2979 2 -10 10 3 166. 907. 907. <
2979 1 10 10 -3 166. 907. 907. <
2980 2 8 10 -3 792. 907. 3176. <
2980 1 -8 10 3 792. 907. 3176. <
2981 2 -8 10 3 792. 907. 454. <
2981 1 8 10 -3 792. 907. 454. <
2982 2 6 10 -3 1285. 907. 907. <
2982 1 -6 10 3 1285. 907. 907. <
2983 2 -6 10 3 1284. 1361. 907. <
2983 1 6 10 -3 1284. 1361. 907. <
2984 2 -4 10 3 5634. 5444. 454. o
2984 1 4 10 -3 5634. 5444. 454. o
2985 2 2 10 -3 768. 454. 907. <
2985 1 -2 10 3 768. 454. 907. <
2986 2 -2 10 3 767. 907. 454. <
2986 1 2 10 -3 767. 907. 454. <
2987 2 0 10 -3 23671. 21322. 922. o
2987 1 0 10 3 23671. 21322. 922. o
2988 2 0 10 3 23671. 20414. 928. o
2988 1 0 10 -3 23671. 20414. 928. o
2989 2 -2 10 -3 767. 454. 454. <
2989 1 2 10 3 767. 454. 454. <
2990 2 2 10 3 768. 907. 454. <
2990 1 -2 10 -3 768. 907. 454. <
2991 2 -4 10 -3 5634. 5444. 454. o
2991 1 4 10 3 5634. 5444. 454. o
2992 2 -6 10 -3 1284. 1815. 907. <
2992 1 6 10 3 1284. 1815. 907. <
2993 2 -8 10 -3 792. 2722. 1360. <
2993 1 8 10 3 792. 2722. 1360. <
2994 2 -10 10 -3 166. 454. 907. <
2994 1 10 10 3 166. 454. 907. <
2995 3 -3 -11 9 19412. 18600. 3177. o
2995 2 9 11 -3 19412. 18600. 3177. o
2995 1 -9 11 3 19412. 18600. 3177. o
2996 3 3 -11 -9 19105. 20868. 897. o
2996 2 -9 11 3 19105. 20868. 897. o
2996 1 9 11 -3 19105. 20868. 897. o
2997 3 -3 -11 7 16912. 23136. 2253. o
2997 2 7 11 -3 16912. 23136. 2253. o
2997 1 -7 11 3 16912. 23136. 2253. o
2998 3 3 -11 -7 17482. 34932. 1257. o
2998 2 -7 11 3 17482. 34932. 1257. o
2998 1 7 11 -3 17482. 34932. 1257. o
2999 3 3 -11 -5 218762. 183277. 2973. o
2999 2 -5 11 3 218762. 183277. 2973. o
2999 1 5 11 -3 218762. 183277. 2973. o
3000 3 -3 -11 3 127974. 113868. 1657. o
3000 2 3 11 -3 127974. 113868. 1657. o
3000 1 -3 11 3 127974. 113868. 1657. o
3001 3 3 -11 -3 129133. 102073. 1859. o
3001 2 -3 11 3 129133. 102073. 1859. o
3001 1 3 11 -3 129133. 102073. 1859. o
3002 3 -3 -11 1 387024. 333891. 3641. o
3002 2 1 11 -3 387024. 333891. 3641. o
3002 1 -1 11 3 387024. 333891. 3641. o
3003 3 3 -11 -1 384529. 357481. 2929. o
3003 2 -1 11 3 384529. 357481. 2929. o
3003 1 1 11 -3 384529. 357481. 2929. o
3004 3 -3 -11 -1 385096. 343871. 3340. o
3004 2 -1 11 -3 385096. 343871. 3340. o
3004 1 1 11 3 385096. 343871. 3340. o
3005 3 3 -11 1 386458. 348861. 3246. o
3005 2 1 11 3 386458. 348861. 3246. o
3005 1 -1 11 -3 386458. 348861. 3246. o
3006 3 -3 -11 -3 128587. 122033. 1512. o
3006 2 -3 11 -3 128587. 122033. 1512. o
3006 1 3 11 3 128587. 122033. 1512. o
3007 3 3 -11 3 128521. 125209. 1875. o
3007 2 3 11 3 128521. 125209. 1875. o
3007 1 -3 11 -3 128521. 125209. 1875. o
3008 3 -3 -11 -5 219902. 237262. 2295. o
3008 2 -5 11 -3 219902. 237262. 2295. o
3008 1 5 11 3 219902. 237262. 2295. o
3009 3 -3 -11 -7 17064. 18146. 2266. o
3009 2 -7 11 -3 17064. 18146. 2266. o
3009 1 7 11 3 17064. 18146. 2266. o
3010 3 -3 -11 -9 19345. 23590. 1342. o
3010 2 -9 11 -3 19345. 23590. 1342. o
3010 1 9 11 3 19345. 23590. 1342. o
3011 2 10 12 -3 39. 1815. 1814. <
3011 1 -10 12 3 39. 1815. 1814. <
3012 2 -10 12 3 39. 907. 453. <
3012 1 10 12 -3 39. 907. 453. <
3013 2 8 12 -3 148. 2722. 2721. <
3013 1 -8 12 3 148. 2722. 2721. <
3014 2 -8 12 3 148. 907. 453. <
3014 1 8 12 -3 148. 907. 453. <
3015 2 6 12 -3 745. 907. 907. <
3015 1 -6 12 3 745. 907. 907. <
3016 2 -6 12 3 745. 907. 454. <
3016 1 6 12 -3 745. 907. 454. <
3017 2 4 12 -3 2671. 4537. 905. o
3017 1 -4 12 3 2671. 4537. 905. o
3018 2 -4 12 3 2673. 4990. 904. o
3018 1 4 12 -3 2673. 4990. 904. o
3019 2 2 12 -3 1819. 907. 908. <
3019 1 -2 12 3 1819. 907. 908. <
3020 2 -2 12 3 1810. 1361. 454. o
3020 1 2 12 -3 1810. 1361. 454. o
3021 2 0 12 -3 28701. 24951. 936. o
3021 1 0 12 3 28701. 24951. 936. o
3022 2 0 12 3 28701. 25405. 933. o
3022 1 0 12 -3 28701. 25405. 933. o
3023 2 -2 12 -3 1810. 907. 454. <
3023 1 2 12 3 1810. 907. 454. <
3024 2 2 12 3 1819. 907. 454. <
3024 1 -2 12 -3 1819. 907. 454. <
3025 2 -4 12 -3 2673. 4537. 449. o
3025 1 4 12 3 2673. 4537. 449. o
3026 2 4 12 3 2671. 4537. 1360. o
3026 1 -4 12 -3 2671. 4537. 1360. o
3027 2 -6 12 -3 745. 1361. 907. <
3027 1 6 12 3 745. 1361. 907. <
3028 2 -8 12 -3 148. 1361. 1361. <
3028 1 8 12 3 148. 1361. 1361. <
3029 2 -10 12 -3 39. 907. 907. <
3029 1 10 12 3 39. 907. 907. <
3030 3 -3 -13 9 24611. 24951. 3175. o
3030 2 9 13 -3 24611. 24951. 3175. o
3030 1 -9 13 3 24611. 24951. 3175. o
3031 3 3 -13 -9 24151. 30395. 1326. o
3031 2 -9 13 3 24151. 30395. 1326. o
3031 1 9 13 -3 24151. 30395. 1326. o
3032 3 -3 -13 7 21217. 25405. 1800. o
3032 2 7 13 -3 21217. 25405. 1800. o
3032 1 -7 13 3 21217. 25405. 1800. o
3033 3 3 -13 -7 22264. 34024. 1290. o
3033 2 -7 13 3 22264. 34024. 1290. o
3033 1 7 13 -3 22264. 34024. 1290. o
3034 3 3 -13 -5 284554. 333891. 6607. o
3034 2 -5 13 3 284554. 333891. 6607. o
3034 1 5 13 -3 284554. 333891. 6607. o
3035 3 -3 -13 3 133335. 138819. 1205. o
3035 2 3 13 -3 133335. 138819. 1205. o
3035 1 -3 13 3 133335. 138819. 1205. o
3036 3 3 -13 -3 134800. 134282. 1375. o
3036 2 -3 13 3 134800. 134282. 1375. o
3036 1 3 13 -3 134800. 134282. 1375. o
3037 3 -3 -13 1 469140. 431427. 3496. o
3037 2 1 13 -3 469140. 431427. 3496. o
3037 1 -1 13 3 469140. 431427. 3496. o
3038 3 3 -13 -1 463258. 448666. 2612. o
3038 2 -1 13 3 463258. 448666. 2612. o
3038 1 1 13 -3 463258. 448666. 2612. o
3039 3 -3 -13 -1 465840. 427797. 3497. o
3039 2 -1 13 -3 465840. 427797. 3497. o
3039 1 1 13 3 465840. 427797. 3497. o
3040 3 3 -13 1 466558. 432334. 3375. o
3040 2 1 13 3 466558. 432334. 3375. o
3040 1 -1 13 -3 466558. 432334. 3375. o
3041 3 -3 -13 -3 134110. 127024. 1530. o
3041 2 -3 13 -3 134110. 127024. 1530. o
3041 1 3 13 3 134110. 127024. 1530. o
3042 3 3 -13 3 134026. 150614. 1418. o
3042 2 3 13 3 134026. 150614. 1418. o
3042 1 -3 13 -3 134026. 150614. 1418. o
3043 3 -3 -13 -5 286271. 320735. 2098. o
3043 2 -5 13 -3 286271. 320735. 2098. o
3043 1 5 13 3 286271. 320735. 2098. o
3044 3 -3 -13 -7 21411. 25858. 2256. o
3044 2 -7 13 -3 21411. 25858. 2256. o
3044 1 7 13 3 21411. 25858. 2256. o
3045 3 -3 -13 -9 24529. 19054. 1383. o
3045 2 -9 13 -3 24529. 19054. 1383. o
3045 1 9 13 3 24529. 19054. 1383. o
3046 2 10 14 -3 42. 2268. 2268. <
3046 1 -10 14 3 42. 2268. 2268. <
3047 2 -10 14 3 42. 454. 907. <
3047 1 10 14 -3 42. 454. 907. <
3048 2 8 14 -3 118. 2722. 3175. <
3048 1 -8 14 3 118. 2722. 3175. <
3049 2 -8 14 3 118. -454. 907. <
3049 1 8 14 -3 118. -454. 907. <
3050 2 6 14 -3 864. 907. 907. <
3050 1 -6 14 3 864. 907. 907. <
3051 2 -6 14 3 862. 1361. 453. o
3051 1 6 14 -3 862. 1361. 453. o
3052 2 4 14 -3 1409. 2268. 907. o
3052 1 -4 14 3 1409. 2268. 907. o
3053 2 -4 14 3 1412. 2722. 906. o
3053 1 4 14 -3 1412. 2722. 906. o
3054 2 2 14 -3 1124. 454. 907. <
3054 1 -2 14 3 1124. 454. 907. <
3055 2 -2 14 3 1114. 454. 454. <
3055 1 2 14 -3 1114. 454. 454. <
3056 2 0 14 -3 23526. 22229. 916. o
3056 1 0 14 3 23526. 22229. 916. o
3057 2 0 14 3 23526. 21322. 921. o
3057 1 0 14 -3 23526. 21322. 921. o
3058 2 -2 14 -3 1114. 907. 454. <
3058 1 2 14 3 1114. 907. 454. <
3059 2 2 14 3 1124. 454. 907. <
3059 1 -2 14 -3 1124. 454. 907. <
3060 2 -4 14 -3 1412. 1815. 453. o
3060 1 4 14 3 1412. 1815. 453. o
3061 2 -6 14 -3 862. 1361. 907. <
3061 1 6 14 3 862. 1361. 907. <
3062 2 -8 14 -3 118. 1815. 1361. <
3062 1 8 14 3 118. 1815. 1361. <
3063 2 -10 14 -3 42. 0. 907. <
3063 1 10 14 3 42. 0. 907. <
3064 3 -3 -15 9 3392. 2722. 2722. <
3064 2 9 15 -3 3392. 2722. 2722. <
3064 1 -9 15 3 3392. 2722. 2722. <
3065 3 3 -15 -9 3356. 2268. 908. o
3065 2 -9 15 3 3356. 2268. 908. o
3065 1 9 15 -3 3356. 2268. 908. o
3066 3 -3 -15 7 1646. 2722. 1814. <
3066 2 7 15 -3 1646. 2722. 1814. <
3066 1 -7 15 3 1646. 2722. 1814. <
3067 3 3 -15 -7 1705. 4083. 905. o
3067 2 -7 15 3 1705. 4083. 905. o
3067 1 7 15 -3 1705. 4083. 905. o
3068 3 -3 -15 5 12567. 1815. 1823. <
3068 2 5 15 -3 12567. 1815. 1823. <
3068 1 -5 15 3 12567. 1815. 1823. <
3069 3 3 -15 -5 12478. 17239. 1346. o
3069 2 -5 15 3 12478. 17239. 1346. o
3069 1 5 15 -3 12478. 17239. 1346. o
3070 3 -3 -15 3 11552. 10434. 911. o
3070 2 3 15 -3 11552. 10434. 911. o
3070 1 -3 15 3 11552. 10434. 911. o
3071 3 3 -15 -3 11807. 9980. 913. o
3071 2 -3 15 3 11807. 9980. 913. o
3071 1 3 15 -3 11807. 9980. 913. o
3072 3 -3 -15 1 13646. 11795. 914. o
3072 2 1 15 -3 13646. 11795. 914. o
3072 1 -1 15 3 13646. 11795. 914. o
3073 3 3 -15 -1 13440. 12702. 459. o
3073 2 -1 15 3 13440. 12702. 459. o
3073 1 1 15 -3 13440. 12702. 459. o
3074 3 -3 -15 -1 13506. 12249. 912. o
3074 2 -1 15 -3 13506. 12249. 912. o
3074 1 1 15 3 13506. 12249. 912. o
3075 3 3 -15 1 13580. 11341. 469. o
3075 2 1 15 3 13580. 11341. 469. o
3075 1 -1 15 -3 13580. 11341. 469. o
3076 3 -3 -15 -3 11687. 11341. 908. o
3076 2 -3 15 -3 11687. 11341. 908. o
3076 1 3 15 3 11687. 11341. 908. o
3077 3 3 -15 3 11672. 10434. 911. o
3077 2 3 15 3 11672. 10434. 911. o
3077 1 -3 15 -3 11672. 10434. 911. o
3078 3 -3 -15 -5 12545. 9527. 917. o
3078 2 -5 15 -3 12545. 9527. 917. o
3078 1 5 15 3 12545. 9527. 917. o
3079 3 -3 -15 -7 1647. 4990. 1813. o
3079 2 -7 15 -3 1647. 4990. 1813. o
3079 1 7 15 3 1647. 4990. 1813. o
3080 3 -3 -15 -9 3386. 2268. 908. o
3080 2 -9 15 -3 3386. 2268. 908. o
3080 1 9 15 3 3386. 2268. 908. o
3081 2 10 16 -3 56. -907. 2268. <
3081 1 -10 16 3 56. -907. 2268. <
3082 2 -10 16 3 56. 907. 907. <
3082 1 10 16 -3 56. 907. 907. <
3083 2 8 16 -3 492. 4083. 3175. <
3083 1 -8 16 3 492. 4083. 3175. <
3084 2 -8 16 3 491. -454. 454. <
3084 1 8 16 -3 491. -454. 454. <
3085 2 6 16 -3 1004. 1361. 1815. <
3085 1 -6 16 3 1004. 1361. 1815. <
3086 2 -6 16 3 1003. 3176. 451. o
3086 1 6 16 -3 1003. 3176. 451. o
3087 2 4 16 -3 196. 454. 1361. <
3087 1 -4 16 3 196. 454. 1361. <
3088 2 -4 16 3 197. 907. 907. <
3088 1 4 16 -3 197. 907. 907. <
3089 2 2 16 -3 11803. 12702. 904. o
3089 1 -2 16 3 11803. 12702. 904. o
3090 2 -2 16 3 11807. 8166. 473. o
3090 1 2 16 -3 11807. 8166. 473. o
3091 2 0 16 -3 18099. 16332. 916. o
3091 1 0 16 3 18099. 16332. 916. o
3092 2 0 16 3 18099. 16785. 914. o
3092 1 0 16 -3 18099. 16785. 914. o
3093 2 -2 16 -3 11807. 8166. 917. o
3093 1 2 16 3 11807. 8166. 917. o
3094 2 2 16 3 11803. 9980. 913. o
3094 1 -2 16 -3 11803. 9980. 913. o
3095 2 -4 16 -3 197. 1361. 907. <
3095 1 4 16 3 197. 1361. 907. <
3096 2 4 16 3 196. -454. 907. <
3096 1 -4 16 -3 196. -454. 907. <
3097 2 -6 16 -3 1003. 1361. 907. <
3097 1 6 16 3 1003. 1361. 907. <
3098 2 -8 16 -3 491. 907. 1361. <
3098 1 8 16 3 491. 907. 1361. <
3099 2 -10 16 -3 56. 454. 907. <
3099 1 10 16 3 56. 454. 907. <
3100 3 -3 -17 9 1002. 1361. 2268. <
3100 2 9 17 -3 1002. 1361. 2268. <
3100 1 -9 17 3 1002. 1361. 2268. <
3101 3 3 -17 -9 998. 454. 454. <
3101 2 -9 17 3 998. 454. 454. <
3101 1 9 17 -3 998. 454. 454. <
3102 3 -3 -17 7 449. 1361. 1814. <
3102 2 7 17 -3 449. 1361. 1814. <
3102 1 -7 17 3 449. 1361. 1814. <
3103 3 3 -17 -7 472. 454. 454. <
3103 2 -7 17 3 472. 454. 454. <
3103 1 7 17 -3 472. 454. 454. <
3104 3 -3 -17 5 802. -454. 907. <
3104 2 5 17 -3 802. -454. 907. <
3104 1 -5 17 3 802. -454. 907. <
3105 3 3 -17 -5 799. 1815. 907. <
3105 2 -5 17 3 799. 1815. 907. <
3105 1 5 17 -3 799. 1815. 907. <
3106 3 -3 -17 3 1376. 1815. 907. <
3106 2 3 17 -3 1376. 1815. 907. <
3106 1 -3 17 3 1376. 1815. 907. <
3107 3 3 -17 -3 1392. 907. 907. <
3107 2 -3 17 3 1392. 907. 907. <
3107 1 3 17 -3 1392. 907. 907. <
3108 3 -3 -17 1 624. 0. 454. <
3108 2 1 17 -3 624. 0. 454. <
3108 1 -1 17 3 624. 0. 454. <
3109 3 3 -17 -1 615. 907. 454. <
3109 2 -1 17 3 615. 907. 454. <
3109 1 1 17 -3 615. 907. 454. <
3110 3 -3 -17 -1 629. 907. 454. <
3110 2 -1 17 -3 629. 907. 454. <
3110 1 1 17 3 629. 907. 454. <
3111 3 3 -17 1 610. 907. 454. <
3111 2 1 17 3 610. 907. 454. <
3111 1 -1 17 -3 610. 907. 454. <
3112 3 -3 -17 -3 1384. 454. 454. <
3112 2 -3 17 -3 1384. 454. 454. <
3112 1 3 17 3 1384. 454. 454. <
3113 3 3 -17 3 1383. 1361. 1361. <
3113 2 3 17 3 1383. 1361. 1361. <
3113 1 -3 17 -3 1383. 1361. 1361. <
3114 3 -3 -17 -5 793. 454. 907. <
3114 2 -5 17 -3 793. 454. 907. <
3114 1 5 17 3 793. 454. 907. <
3115 3 -3 -17 -7 462. 0. 1361. <
3115 2 -7 17 -3 462. 0. 1361. <
3115 1 7 17 3 462. 0. 1361. <
3116 3 -3 -17 -9 997. 907. 907. <
3116 2 -9 17 -3 997. 907. 907. <
3116 1 9 17 3 997. 907. 907. <
3117 2 10 18 -3 253. 454. 2268. <
3117 1 -10 18 3 253. 454. 2268. <
3118 2 -10 18 3 253. 454. 907. <
3118 1 10 18 -3 253. 454. 907. <
3119 2 8 18 -3 1498. 907. 2722. <
3119 1 -8 18 3 1498. 907. 2722. <
3120 2 -8 18 3 1500. 3176. 451. o
3120 1 8 18 -3 1500. 3176. 451. o
3121 2 -6 18 3 23158. 27673. 1338. o
3121 1 6 18 -3 23158. 27673. 1338. o
3122 2 4 18 -3 7785. 7712. 907. o
3122 1 -4 18 3 7785. 7712. 907. o
3123 2 -4 18 3 7794. 11341. 1354. o
3123 1 4 18 -3 7794. 11341. 1354. o
3124 2 2 18 -3 521638. 500382. 3301. o
3124 1 -2 18 3 521638. 500382. 3301. o
3125 2 -2 18 3 521612. 484051. 3639. o
3125 1 2 18 -3 521612. 484051. 3639. o
3126 2 0 18 -3 3741. 4083. 453. o
3126 1 0 18 3 3741. 4083. 453. o
3127 2 0 18 3 3741. 3629. 454. o
3127 1 0 18 -3 3741. 3629. 454. o
3128 2 -2 18 -3 521613. 478153. 4070. o
3128 1 2 18 3 521613. 478153. 4070. o
3129 2 2 18 3 521638. 472709. 4232. o
3129 1 -2 18 -3 521638. 472709. 4232. o
3130 2 -4 18 -3 7794. 9980. 1357. o
3130 1 4 18 3 7794. 9980. 1357. o
3131 2 4 18 3 7785. 9527. 903. o
3131 1 -4 18 -3 7785. 9527. 903. o
3132 2 -6 18 -3 23158. 19054. 1377. o
3132 1 6 18 3 23158. 19054. 1377. o
3133 2 6 18 3 23168. 18600. 2279. o
3133 1 -6 18 -3 23168. 18600. 2279. o
3134 2 -8 18 -3 1500. 2268. 1361. <
3134 1 8 18 3 1500. 2268. 1361. <
3135 2 -10 18 -3 253. 454. 907. <
3135 1 10 18 3 253. 454. 907. <
3136 3 -3 -19 9 1093. 454. 2268. <
3136 2 9 19 -3 1093. 454. 2268. <
3136 1 -9 19 3 1093. 454. 2268. <
3137 3 3 -19 -9 1077. 907. 907. <
3137 2 -9 19 3 1077. 907. 907. <
3137 1 9 19 -3 1077. 907. 907. <
3138 3 -3 -19 7 306. 907. 1815. <
3138 2 7 19 -3 306. 907. 1815. <
3138 1 -7 19 3 306. 907. 1815. <
3139 3 3 -19 -7 326. 907. 907. <
3139 2 -7 19 3 326. 907. 907. <
3139 1 7 19 -3 326. 907. 907. <
3140 3 -3 -19 5 4278. 1815. 1362. <
3140 2 5 19 -3 4278. 1815. 1362. <
3140 1 -5 19 3 4278. 1815. 1362. <
3141 3 3 -19 -5 4209. 2722. 909. o
3141 2 -5 19 3 4209. 2722. 909. o
3141 1 5 19 -3 4209. 2722. 909. o
3142 3 -3 -19 3 6547. 6351. 908. o
3142 2 3 19 -3 6547. 6351. 908. o
3142 1 -3 19 3 6547. 6351. 908. o
3143 3 3 -19 -3 6644. 6805. 907. o
3143 2 -3 19 3 6644. 6805. 907. o
3143 1 3 19 -3 6644. 6805. 907. o
3144 3 -3 -19 1 15582. 14971. 910. o
3144 2 1 19 -3 15582. 14971. 910. o
3144 1 -1 19 3 15582. 14971. 910. o
3145 3 3 -19 -1 15653. 14971. 910. o
3145 2 -1 19 3 15653. 14971. 910. o
3145 1 1 19 -3 15653. 14971. 910. o
3146 3 -3 -19 -1 15538. 14517. 462. o
3146 2 -1 19 -3 15538. 14517. 462. o
3146 1 1 19 3 15538. 14517. 462. o
3147 3 3 -19 1 15696. 14971. 460. o
3147 2 1 19 3 15696. 14971. 460. o
3147 1 -1 19 -3 15696. 14971. 460. o
3148 3 -3 -19 -3 6598. 5444. 458. o
3148 2 -3 19 -3 6598. 5444. 458. o
3148 1 3 19 3 6598. 5444. 458. o
3149 3 3 -19 3 6593. 5444. 1362. o
3149 2 3 19 3 6593. 5444. 1362. o
3149 1 -3 19 -3 6593. 5444. 1362. o
3150 3 -3 -19 -5 4257. 1815. 909. <
3150 2 -5 19 -3 4257. 1815. 909. <
3150 1 5 19 3 4257. 1815. 909. <
3151 3 -3 -19 -7 314. 907. 1815. <
3151 2 -7 19 -3 314. 907. 1815. <
3151 1 7 19 3 314. 907. 1815. <
3152 3 -3 -19 -9 1089. 2268. 907. o
3152 2 -9 19 -3 1089. 2268. 907. o
3152 1 9 19 3 1089. 2268. 907. o
3153 2 8 20 -3 925. 1361. 2722. <
3153 1 -8 20 3 925. 1361. 2722. <
3154 2 -8 20 3 919. 1815. 453. o
3154 1 8 20 -3 919. 1815. 453. o
3155 2 -6 20 3 7587. 4990. 912. o
3155 1 6 20 -3 7587. 4990. 912. o
3156 2 4 20 -3 3353. 1361. 1362. <
3156 1 -4 20 3 3353. 1361. 1362. <
3157 2 -4 20 3 3333. 1815. 456. o
3157 1 4 20 -3 3333. 1815. 456. o
3158 2 2 20 -3 54263. 42190. 1059. o
3158 1 -2 20 3 54263. 42190. 1059. o
3159 2 -2 20 3 54324. 49902. 1405. o
3159 1 2 20 -3 54324. 49902. 1405. o
3160 2 0 20 -3 1645. 2722. 907. o
3160 1 0 20 3 1645. 2722. 907. o
3161 2 0 20 3 1645. 1815. 453. o
3161 1 0 20 -3 1645. 1815. 453. o
3162 2 -2 20 -3 54323. 44005. 1041. o
3162 1 2 20 3 54323. 44005. 1041. o
3163 2 2 20 3 54263. 51717. 1387. o
3163 1 -2 20 -3 54263. 51717. 1387. o
3164 2 -4 20 -3 3333. 2268. 908. o
3164 1 4 20 3 3333. 2268. 908. o
3165 2 4 20 3 3353. 1361. 908. <
3165 1 -4 20 -3 3353. 1361. 908. <
3166 2 -6 20 -3 7587. 7712. 1361. o
3166 1 6 20 3 7587. 7712. 1361. o
3167 2 6 20 3 7562. 2722. 2724. <
3167 1 -6 20 -3 7562. 2722. 2724. <
3168 2 -8 20 -3 919. 1815. 907. <
3168 1 8 20 3 919. 1815. 907. <
3169 3 -3 -21 9 2415. 1361. 2268. <
3169 2 9 21 -3 2415. 1361. 2268. <
3169 1 -9 21 3 2415. 1361. 2268. <
3170 3 3 -21 -9 2377. 1361. 908. <
3170 2 -9 21 3 2377. 1361. 908. <
3170 1 9 21 -3 2377. 1361. 908. <
3171 3 -3 -21 7 2746. 454. 1815. <
3171 2 7 21 -3 2746. 454. 1815. <
3171 1 -7 21 3 2746. 454. 1815. <
3172 3 3 -21 -7 2834. 2722. 907. o
3172 2 -7 21 3 2834. 2722. 907. o
3172 1 7 21 -3 2834. 2722. 907. o
3173 3 -3 -21 5 22033. 6805. 1841. o
3173 2 5 21 -3 22033. 6805. 1841. o
3173 1 -5 21 3 22033. 6805. 1841. o
3174 3 3 -21 -5 21866. 15878. 938. o
3174 2 -5 21 3 21866. 15878. 938. o
3174 1 5 21 -3 21866. 15878. 938. o
3175 3 -3 -21 3 41732. 39014. 939. o
3175 2 3 21 -3 41732. 39014. 939. o
3175 1 -3 21 3 41732. 39014. 939. o
3176 3 3 -21 -3 42084. 41736. 912. o
3176 2 -3 21 3 42084. 41736. 912. o
3176 1 3 21 -3 42084. 41736. 912. o
3177 3 -3 -21 1 100145. 90731. 1524. o
3177 2 1 21 -3 100145. 90731. 1524. o
3177 1 -1 21 3 100145. 90731. 1524. o
3178 3 3 -21 -1 100050. 93907. 1067. o
3178 2 -1 21 3 100050. 93907. 1067. o
3178 1 1 21 -3 100050. 93907. 1067. o
3179 3 -3 -21 -1 99874. 88916. 1168. o
3179 2 -1 21 -3 99874. 88916. 1168. o
3179 1 1 21 3 99874. 88916. 1168. o
3180 3 3 -21 1 100322. 94814. 1462. o
3180 2 1 21 3 100322. 94814. 1462. o
3180 1 -1 21 -3 100322. 94814. 1462. o
3181 3 -3 -21 -3 41918. 39922. 931. o
3181 2 -3 21 -3 41918. 39922. 931. o
3181 1 3 21 3 41918. 39922. 931. o
3182 3 3 -21 3 41898. 41283. 1366. o
3182 2 3 21 3 41898. 41283. 1366. o
3182 1 -3 21 -3 41898. 41283. 1366. o
3183 3 -3 -21 -5 22002. 13156. 948. o
3183 2 -5 21 -3 22002. 13156. 948. o
3183 1 5 21 3 22002. 13156. 948. o
3184 3 -3 -21 -7 2744. 907. 1815. <
3184 2 -7 21 -3 2744. 907. 1815. <
3184 1 7 21 3 2744. 907. 1815. <
3185 3 -3 -21 -9 2418. 454. 908. <
3185 2 -9 21 -3 2418. 454. 908. <
3185 1 9 21 3 2418. 454. 908. <
3186 2 8 22 -3 881. 1361. 2722. <
3186 1 -8 22 3 881. 1361. 2722. <
3187 2 -8 22 3 881. 907. 454. <
3187 1 8 22 -3 881. 907. 454. <
3188 2 6 22 -3 3843. 1815. 909. <
3188 1 -6 22 3 3843. 1815. 909. <
3189 2 -6 22 3 3843. 2722. 908. o
3189 1 6 22 -3 3843. 2722. 908. o
3190 2 4 22 -3 3144. 1361. 1362. <
3190 1 -4 22 3 3144. 1361. 1362. <
3191 2 -4 22 3 3146. 4083. 452. o
3191 1 4 22 -3 3146. 4083. 452. o
3192 2 2 22 -3 33261. 30849. 929. o
3192 1 -2 22 3 33261. 30849. 929. o
3193 2 -2 22 3 33252. 33117. 1362. o
3193 1 2 22 -3 33252. 33117. 1362. o
3194 2 0 22 -3 3288. 2722. 455. o
3194 1 0 22 3 3288. 2722. 455. o
3195 2 0 22 3 3287. 2722. 455. o
3195 1 0 22 -3 3287. 2722. 455. o
3196 2 -2 22 -3 33252. 34478. 1353. o
3196 1 2 22 3 33252. 34478. 1353. o
3197 2 2 22 3 33261. 35385. 885. o
3197 1 -2 22 -3 33261. 35385. 885. o
3198 2 -4 22 -3 3146. 3176. 454. o
3198 1 4 22 3 3146. 3176. 454. o
3199 2 4 22 3 3144. 3629. 907. o
3199 1 -4 22 -3 3144. 3629. 907. o
3200 2 -6 22 -3 3843. 1361. 909. <
3200 1 6 22 3 3843. 1361. 909. <
3201 2 6 22 3 3843. 1361. 2269. <
3201 1 -6 22 -3 3843. 1361. 2269. <
3202 2 -8 22 -3 881. 907. 907. <
3202 1 8 22 3 881. 907. 907. <
3203 3 -3 -23 9 10834. 8619. 2271. o
3203 2 9 23 -3 10834. 8619. 2271. o
3203 1 -9 23 3 10834. 8619. 2271. o
3204 3 3 -23 -9 10750. 12702. 900. o
3204 2 -9 23 3 10750. 12702. 900. o
3204 1 9 23 -3 10750. 12702. 900. o
3205 3 -3 -23 7 17741. 9527. 2280. o
3205 2 7 23 -3 17741. 9527. 2280. o
3205 1 -7 23 3 17741. 9527. 2280. o
3206 3 3 -23 -7 18151. 17239. 912. o
3206 2 -7 23 3 18151. 17239. 912. o
3206 1 7 23 -3 18151. 17239. 912. o
3207 3 3 -23 -5 166840. 190535. 2258. o
3207 2 -5 23 3 166840. 190535. 2258. o
3207 1 5 23 -3 166840. 190535. 2258. o
3208 3 -3 -23 3 252510. 207774. 2934. o
3208 2 3 23 -3 252510. 207774. 2934. o
3208 1 -3 23 3 252510. 207774. 2934. o
3209 3 3 -23 -3 253315. 271286. 2206. o
3209 2 -3 23 3 253315. 271286. 2206. o
3209 1 3 23 -3 253315. 271286. 2206. o
3210 3 -3 -23 1 604204. 589299. 3142. o
3210 2 1 23 -3 604204. 589299. 3142. o
3210 1 -1 23 3 604204. 589299. 3142. o
3211 3 3 -23 -1 602974. 573875. 3769. o
3211 2 -1 23 3 602974. 573875. 3769. o
3211 1 1 23 -3 602974. 573875. 3769. o
3212 3 -3 -23 -1 603428. 568431. 4573. o
3212 2 -1 23 -3 603428. 568431. 4573. o
3212 1 1 23 3 603428. 568431. 4573. o
3213 3 3 -23 1 603752. 621508. 1257. o
3213 2 1 23 3 603752. 621508. 1257. o
3213 1 -1 23 -3 603752. 621508. 1257. o
3214 3 -3 -23 -3 252935. 197794. 3392. o
3214 2 -3 23 -3 252935. 197794. 3392. o
3214 1 3 23 3 252935. 197794. 3392. o
3215 3 3 -23 3 252889. 217301. 3081. o
3215 2 3 23 3 252889. 217301. 3081. o
3215 1 -3 23 -3 252889. 217301. 3081. o
3216 3 -3 -23 -5 166974. 158326. 2855. o
3216 2 -5 23 -3 166974. 158326. 2855. o
3216 1 5 23 3 166974. 158326. 2855. o
3217 3 -3 -23 -7 17855. 19507. 2719. o
3217 2 -7 23 -3 17855. 19507. 2719. o
3217 1 7 23 3 17855. 19507. 2719. o
3218 3 -3 -23 -9 10807. 11795. 1359. o
3218 2 -9 23 -3 10807. 11795. 1359. o
3218 1 9 23 3 10807. 11795. 1359. o
3219 2 8 24 -3 259. 0. 3629. <
3219 1 -8 24 3 259. 0. 3629. <
3220 2 -8 24 3 259. 454. 454. <
3220 1 8 24 -3 259. 454. 454. <
3221 2 6 24 -3 1108. 0. 907. <
3221 1 -6 24 3 1108. 0. 907. <
3222 2 -6 24 3 1107. 907. 454. <
3222 1 6 24 -3 1107. 907. 454. <
3223 2 4 24 -3 2083. 1815. 907. <
3223 1 -4 24 3 2083. 1815. 907. <
3224 2 -4 24 3 2086. 1361. 454. o
3224 1 4 24 -3 2086. 1361. 454. o
3225 2 2 24 -3 22590. 20868. 918. o
3225 1 -2 24 3 22590. 20868. 918. o
3226 2 -2 24 3 22584. 22229. 910. o
3226 1 2 24 -3 22584. 22229. 910. o
3227 2 0 24 -3 70. 0. 454. <
3227 1 0 24 3 70. 0. 454. <
3228 2 0 24 3 70. 907. 453. <
3228 1 0 24 -3 70. 907. 453. <
3229 2 -2 24 -3 22584. 22683. 1361. o
3229 1 2 24 3 22584. 22683. 1361. o
3230 2 2 24 3 22590. 21776. 913. o
3230 1 -2 24 -3 22590. 21776. 913. o
3231 2 -4 24 -3 2086. 1815. 907. <
3231 1 4 24 3 2086. 1815. 907. <
3232 2 4 24 3 2083. 1815. 1361. <
3232 1 -4 24 -3 2083. 1815. 1361. <
3233 2 -6 24 -3 1106. 0. 907. <
3233 1 6 24 3 1106. 0. 907. <
3234 2 6 24 3 1108. -454. 2722. <
3234 1 -6 24 -3 1108. -454. 2722. <
3235 2 -8 24 -3 259. 907. 907. <
3235 1 8 24 3 259. 907. 907. <
3236 3 -3 -25 9 16661. 15878. 2270. o
3236 2 9 25 -3 16661. 15878. 2270. o
3236 1 -9 25 3 16661. 15878. 2270. o
3237 3 3 -25 -9 16349. 17239. 1358. o
3237 2 -9 25 3 16349. 17239. 1358. o
3237 1 9 25 -3 16349. 17239. 1358. o
3238 3 -3 -25 7 28985. 19507. 2293. o
3238 2 7 25 -3 28985. 19507. 2293. o
3238 1 -7 25 3 28985. 19507. 2293. o
3239 3 3 -25 -7 29802. 29941. 906. o
3239 2 -7 25 3 29802. 29941. 906. o
3239 1 7 25 -3 29802. 29941. 906. o
3240 3 3 -25 -5 308336. 359295. 884. o
3240 2 -5 25 3 308336. 359295. 884. o
3240 1 5 25 -3 308336. 359295. 884. o
3241 3 -3 -25 3 517359. 510816. 3033. o
3241 2 3 25 -3 517359. 510816. 3033. o
3241 1 -3 25 3 517359. 510816. 3033. o
3242 3 3 -25 -3 521453. 572060. 11362. o
3242 2 -3 25 3 521453. 572060. 11362. o
3242 1 3 25 -3 521453. 572060. 11362. o
3243 3 -3 -25 1 1393010. 1360060. 6104. o
3243 2 1 25 -3 1393010. 1360060. 6104. o
3243 1 -1 25 3 1393010. 1360060. 6104. o
3244 3 3 -25 -1 1393270. 1422210. 28292. o
3244 2 -1 25 3 1393270. 1422210. 28292. o
3244 1 1 25 -3 1393270. 1422210. 28292. o
3245 3 -3 -25 -1 1392140. 1398170. 5015. o
3245 2 -1 25 -3 1392140. 1398170. 5015. o
3245 1 1 25 3 1392140. 1398170. 5015. o
3246 3 3 -25 1 1394140. 1359150. 6225. o
3246 2 1 25 3 1394140. 1359150. 6225. o
3246 1 -1 25 -3 1394140. 1359150. 6225. o
3247 3 -3 -25 -3 519524. 528509. 3264. o
3247 2 -3 25 -3 519524. 528509. 3264. o
3247 1 3 25 3 519524. 528509. 3264. o
3248 3 3 -25 3 519289. 488587. 3649. o
3248 2 3 25 3 519289. 488587. 3649. o
3248 1 -3 25 -3 519289. 488587. 3649. o
3249 3 -3 -25 -5 309095. 358842. 2023. o
3249 2 -5 25 -3 309095. 358842. 2023. o
3249 1 5 25 3 309095. 358842. 2023. o
3250 3 -3 -25 -7 29220. 24497. 2734. o
3250 2 -7 25 -3 29220. 24497. 2734. o
3250 1 7 25 3 29220. 24497. 2734. o
3251 3 -3 -25 -9 16620. 16332. 1362. o
3251 2 -9 25 -3 16620. 16332. 1362. o
3251 1 9 25 3 16620. 16332. 1362. o
3252 2 8 26 -3 76. 5444. 4082. <
3252 1 -8 26 3 76. 5444. 4082. <
3253 2 -8 26 3 76. 454. 907. <
3253 1 8 26 -3 76. 454. 907. <
3254 2 6 26 -3 182. 454. 907. <
3254 1 -6 26 3 182. 454. 907. <
3255 2 -6 26 3 182. 1815. 452. o
3255 1 6 26 -3 182. 1815. 452. o
3256 2 4 26 -3 303. 454. 907. <
3256 1 -4 26 3 303. 454. 907. <
3257 2 -4 26 3 306. 1361. 453. o
3257 1 4 26 -3 306. 1361. 453. o
3258 2 2 26 -3 10141. 9527. 457. o
3258 1 -2 26 3 10141. 9527. 457. o
3259 2 -2 26 3 10131. 10434. 906. o
3259 1 2 26 -3 10131. 10434. 906. o
3260 2 0 26 -3 3568. 2722. 455. o
3260 1 0 26 3 3568. 2722. 455. o
3261 2 0 26 3 3568. 3176. 908. o
3261 1 0 26 -3 3568. 3176. 908. o
3262 2 -2 26 -3 10131. 9527. 909. o
3262 1 2 26 3 10131. 9527. 909. o
3263 2 2 26 3 10141. 9073. 910. o
3263 1 -2 26 -3 10141. 9073. 910. o
3264 2 -4 26 -3 306. 907. 907. <
3264 1 4 26 3 306. 907. 907. <
3265 2 4 26 3 303. -454. 1361. <
3265 1 -4 26 -3 303. -454. 1361. <
3266 2 -6 26 -3 182. 454. 907. <
3266 1 6 26 3 182. 454. 907. <
3267 2 6 26 3 182. 2268. 2722. <
3267 1 -6 26 -3 182. 2268. 2722. <
3268 2 -8 26 -3 76. 907. 907. <
3268 1 8 26 3 76. 907. 907. <
3269 3 -3 -27 9 1960. -907. 2722. <
3269 2 9 27 -3 1960. -907. 2722. <
3269 1 -9 27 3 1960. -907. 2722. <
3270 3 3 -27 -9 1955. 1815. 907. <
3270 2 -9 27 3 1955. 1815. 907. <
3270 1 9 27 -3 1955. 1815. 907. <
3271 3 -3 -27 7 1246. 1361. 2268. <
3271 2 7 27 -3 1246. 1361. 2268. <
3271 1 -7 27 3 1246. 1361. 2268. <
3272 3 3 -27 -7 1268. 1815. 907. <
3272 2 -7 27 3 1268. 1815. 907. <
3272 1 7 27 -3 1268. 1815. 907. <
3273 3 -3 -27 5 5781. -4083. 1813. <
3273 2 5 27 -3 5781. -4083. 1813. <
3273 1 -5 27 3 5781. -4083. 1813. <
3274 3 3 -27 -5 5806. 5898. 907. o
3274 2 -5 27 3 5806. 5898. 907. o
3274 1 5 27 -3 5806. 5898. 907. o
3275 3 -3 -27 3 6619. 2722. 912. o
3275 2 3 27 -3 6619. 2722. 912. o
3275 1 -3 27 3 6619. 2722. 912. o
3276 3 3 -27 -3 6667. 4537. 911. o
3276 2 -3 27 3 6667. 4537. 911. o
3276 1 3 27 -3 6667. 4537. 911. o
3277 3 -3 -27 1 13106. 8619. 921. o
3277 2 1 27 -3 13106. 8619. 921. o
3277 1 -1 27 3 13106. 8619. 921. o
3278 3 3 -27 -1 13088. 7258. 923. o
3278 2 -1 27 3 13088. 7258. 923. o
3278 1 1 27 -3 13088. 7258. 923. o
3279 3 -3 -27 -1 13069. 5444. 925. o
3279 2 -1 27 -3 13069. 5444. 925. o
3279 1 1 27 3 13069. 5444. 925. o
3280 3 3 -27 1 13125. 6805. 924. o
3280 2 1 27 3 13125. 6805. 924. o
3280 1 -1 27 -3 13125. 6805. 924. o
3281 3 -3 -27 -3 6644. 3629. 911. o
3281 2 -3 27 -3 6644. 3629. 911. o
3281 1 3 27 3 6644. 3629. 911. o
3282 3 3 -27 3 6642. 2268. 912. o
3282 2 3 27 3 6642. 2268. 912. o
3282 1 -3 27 -3 6642. 2268. 912. o
3283 3 -3 -27 -5 5807. 454. 1363. <
3283 2 -5 27 -3 5807. 454. 1363. <
3283 1 5 27 3 5807. 454. 1363. <
3284 3 -3 -27 -7 1254. 1815. 2268. <
3284 2 -7 27 -3 1254. 1815. 2268. <
3284 1 7 27 3 1254. 1815. 2268. <
3285 3 -3 -27 -9 1957. 1815. 907. <
3285 2 -9 27 -3 1957. 1815. 907. <
3285 1 9 27 3 1957. 1815. 907. <
3286 2 8 28 -3 633. 3629. 4990. <
3286 1 -8 28 3 633. 3629. 4990. <
3287 2 -8 28 3 633. 454. 907. <
3287 1 8 28 -3 633. 454. 907. <
3288 2 6 28 -3 279. 454. 1361. <
3288 1 -6 28 3 279. 454. 1361. <
3289 2 -6 28 3 281. 907. 453. <
3289 1 6 28 -3 281. 907. 453. <
3290 2 4 28 -3 6909. 1361. 1364. <
3290 1 -4 28 3 6909. 1361. 1364. <
3291 2 -4 28 3 6901. 3629. 912. o
3291 1 4 28 -3 6901. 3629. 912. o
3292 2 2 28 -3 2752. 1815. 908. <
3292 1 -2 28 3 2752. 1815. 908. <
3293 2 -2 28 3 2742. 2268. 908. o
3293 1 2 28 -3 2742. 2268. 908. o
3294 2 0 28 -3 31652. 30849. 1366. o
3294 1 0 28 3 31652. 30849. 1366. o
3295 2 0 28 3 31652. 31756. 1360. o
3295 1 0 28 -3 31652. 31756. 1360. o
3296 2 -2 28 -3 2742. 1815. 455. o
3296 1 2 28 3 2742. 1815. 455. o
3297 2 -4 28 -3 6901. 4083. 911. o
3297 1 4 28 3 6901. 4083. 911. o
3298 2 -6 28 -3 281. 1361. 907. <
3298 1 6 28 3 281. 1361. 907. <
3299 2 6 28 3 279. 454. 2722. <
3299 1 -6 28 -3 279. 454. 2722. <
3300 2 -8 28 -3 633. 454. 1361. <
3300 1 8 28 3 633. 454. 1361. <
3301 3 -3 -29 9 561. -1361. 2722. <
3301 2 9 29 -3 561. -1361. 2722. <
3301 1 -9 29 3 561. -1361. 2722. <
3302 3 3 -29 -9 556. 907. 1361. <
3302 2 -9 29 3 556. 907. 1361. <
3302 1 9 29 -3 556. 907. 1361. <
3303 3 -3 -29 7 427. 1815. 2268. <
3303 2 7 29 -3 427. 1815. 2268. <
3303 1 -7 29 3 427. 1815. 2268. <
3304 3 3 -29 -7 433. 0. 907. <
3304 2 -7 29 3 433. 0. 907. <
3304 1 7 29 -3 433. 0. 907. <
3305 3 -3 -29 5 1111. 454. 1815. <
3305 2 5 29 -3 1111. 454. 1815. <
3305 1 -5 29 3 1111. 454. 1815. <
3306 3 3 -29 -5 1084. 2722. 906. o
3306 2 -5 29 3 1084. 2722. 906. o
3306 1 5 29 -3 1084. 2722. 906. o
3307 3 -3 -29 3 1132. 907. 1361. <
3307 2 3 29 -3 1132. 907. 1361. <
3307 1 -3 29 3 1132. 907. 1361. <
3308 3 3 -29 -3 1145. 1361. 907. <
3308 2 -3 29 3 1145. 1361. 907. <
3308 1 3 29 -3 1145. 1361. 907. <
3309 3 -3 -29 1 705. 0. 907. <
3309 2 1 29 -3 705. 0. 907. <
3309 1 -1 29 3 705. 0. 907. <
3310 3 3 -29 -1 696. 454. 907. <
3310 2 -1 29 3 696. 454. 907. <
3310 1 1 29 -3 696. 454. 907. <
3311 3 -3 -29 -1 697. 454. 907. <
3311 2 -1 29 -3 697. 454. 907. <
3311 1 1 29 3 697. 454. 907. <
3312 3 3 -29 1 704. 1361. 1361. <
3312 2 1 29 3 704. 1361. 1361. <
3312 1 -1 29 -3 704. 1361. 1361. <
3313 3 -3 -29 -3 1139. 907. 907. <
3313 2 -3 29 -3 1139. 907. 907. <
3313 1 3 29 3 1139. 907. 907. <
3314 3 3 -29 3 1138. 454. 907. <
3314 2 3 29 3 1138. 454. 907. <
3314 1 -3 29 -3 1138. 454. 907. <
3315 3 -3 -29 -5 1096. 1815. 907. <
3315 2 -5 29 -3 1096. 1815. 907. <
3315 1 5 29 3 1096. 1815. 907. <
3316 3 -3 -29 -7 433. 454. 1815. <
3316 2 -7 29 -3 433. 454. 1815. <
3316 1 7 29 3 433. 454. 1815. <
3317 3 -3 -29 -9 558. 1815. 907. <
3317 2 -9 29 -3 558. 1815. 907. <
3317 1 9 29 3 558. 1815. 907. <
3318 2 8 30 -3 2456. 0. 3629. <
3318 1 -8 30 3 2456. 0. 3629. <
3319 2 -8 30 3 2458. 2722. 907. o
3319 1 8 30 -3 2458. 2722. 907. o
3320 2 6 30 -3 6893. 8166. 2267. o
3320 1 -6 30 3 6893. 8166. 2267. o
3321 2 -6 30 3 6885. 9980. 899. o
3321 1 6 30 -3 6885. 9980. 899. o
3322 2 -4 30 3 107310. 124755. 2010. o
3322 1 4 30 -3 107310. 124755. 2010. o
3323 2 2 30 -3 10325. 12249. 901. o
3323 1 -2 30 3 10325. 12249. 901. o
3324 2 -2 30 3 10317. 12702. 899. o
3324 1 2 30 -3 10317. 12702. 899. o
3325 2 0 30 -3 516448. 453656. 5097. o
3325 1 0 30 3 516448. 453656. 5097. o
3326 2 0 30 3 516448. 498568. 3155. o
3326 1 0 30 -3 516448. 498568. 3155. o
3327 2 -2 30 -3 10317. 13610. 1353. o
3327 1 2 30 3 10317. 13610. 1353. o
3328 2 -4 30 -3 107310. 107063. 2271. o
3328 1 4 30 3 107310. 107063. 2271. o
3329 2 -6 30 -3 6885. 11795. 1351. o
3329 1 6 30 3 6885. 11795. 1351. o
3330 2 6 30 3 6893. 5444. 2723. <
3330 1 -6 30 -3 6893. 5444. 2723. <
3331 2 -8 30 -3 2458. 1361. 1361. <
3331 1 8 30 3 2458. 1361. 1361. <
3332 3 -3 -31 9 587. 0. 2268. <
3332 2 9 31 -3 587. 0. 2268. <
3332 1 -9 31 3 587. 0. 2268. <
3333 3 3 -31 -9 581. 907. 907. <
3333 2 -9 31 3 581. 907. 907. <
3333 1 9 31 -3 581. 907. 907. <
3334 3 -3 -31 7 428. 2722. 2268. <
3334 2 7 31 -3 428. 2722. 2268. <
3334 1 -7 31 3 428. 2722. 2268. <
3335 3 3 -31 -7 446. 454. 907. <
3335 2 -7 31 3 446. 454. 907. <
3335 1 7 31 -3 446. 454. 907. <
3336 3 -3 -31 5 2923. -454. 1815. <
3336 2 5 31 -3 2923. -454. 1815. <
3336 1 -5 31 3 2923. -454. 1815. <
3337 3 3 -31 -5 2905. 2722. 907. o
3337 2 -5 31 3 2905. 2722. 907. o
3337 1 5 31 -3 2905. 2722. 907. o
3338 3 -3 -31 3 4164. 2722. 1362. <
3338 2 3 31 -3 4164. 2722. 1362. <
3338 1 -3 31 3 4164. 2722. 1362. <
3339 3 3 -31 -3 4164. 2722. 909. o
3339 2 -3 31 3 4164. 2722. 909. o
3339 1 3 31 -3 4164. 2722. 909. o
3340 3 -3 -31 1 4919. 4537. 1361. o
3340 2 1 31 -3 4919. 4537. 1361. o
3340 1 -1 31 3 4919. 4537. 1361. o
3341 3 3 -31 -1 4848. 4083. 908. o
3341 2 -1 31 3 4848. 4083. 908. o
3341 1 1 31 -3 4848. 4083. 908. o
3342 3 -3 -31 -1 4881. 3176. 909. o
3342 2 -1 31 -3 4881. 3176. 909. o
3342 1 1 31 3 4881. 3176. 909. o
3343 3 3 -31 1 4886. 3629. 1362. o
3343 2 1 31 3 4886. 3629. 1362. o
3343 1 -1 31 -3 4886. 3629. 1362. o
3344 3 -3 -31 -3 4164. 4083. 907. o
3344 2 -3 31 -3 4164. 4083. 907. o
3344 1 3 31 3 4164. 4083. 907. o
3345 3 3 -31 3 4164. 3176. 908. o
3345 2 3 31 3 4164. 3176. 908. o
3345 1 -3 31 -3 4164. 3176. 908. o
3346 3 -3 -31 -5 2913. 1361. 908. <
3346 2 -5 31 -3 2913. 1361. 908. <
3346 1 5 31 3 2913. 1361. 908. <
3347 3 3 -31 5 2915. 1815. 1361. <
3347 2 5 31 3 2915. 1815. 1361. <
3347 1 -5 31 -3 2915. 1815. 1361. <
3348 3 -3 -31 -7 434. 454. 1815. <
3348 2 -7 31 -3 434. 454. 1815. <
3348 1 7 31 3 434. 454. 1815. <
3349 3 -3 -31 -9 585. 2722. 906. o
3349 2 -9 31 -3 585. 2722. 906. o
3349 1 9 31 3 585. 2722. 906. o
3350 2 8 32 -3 1321. 5898. 3174. <
3350 1 -8 32 3 1321. 5898. 3174. <
3351 2 -8 32 3 1316. 1815. 907. <
3351 1 8 32 -3 1316. 1815. 907. <
3352 2 6 32 -3 3270. 454. 2269. <
3352 1 -6 32 3 3270. 454. 2269. <
3353 2 -6 32 3 3283. 2722. 908. o
3353 1 6 32 -3 3283. 2722. 908. o
3354 2 -4 32 3 33256. 35839. 1801. o
3354 1 4 32 -3 33256. 35839. 1801. o
3355 2 2 32 -3 2186. 2722. 907. o
3355 1 -2 32 3 2186. 2722. 907. o
3356 2 -2 32 3 2198. 3629. 906. o
3356 1 2 32 -3 2198. 3629. 906. o
3357 2 0 32 -3 134939. 134282. 1828. o
3357 1 0 32 3 134939. 134282. 1828. o
3358 2 0 32 3 134939. 140180. 1211. o
3358 1 0 32 -3 134939. 140180. 1211. o
3359 2 -2 32 -3 2198. 2722. 907. o
3359 1 2 32 3 2198. 2722. 907. o
3360 2 2 32 3 2186. 2722. 907. o
3360 1 -2 32 -3 2186. 2722. 907. o
3361 2 -4 32 -3 33256. 26766. 961. o
3361 1 4 32 3 33256. 26766. 961. o
3362 2 -6 32 -3 3283. 1361. 1362. <
3362 1 6 32 3 3283. 1361. 1362. <
3363 2 6 32 3 3270. 907. 3176. <
3363 1 -6 32 -3 3270. 907. 3176. <
3364 2 -8 32 -3 1316. 2722. 1360. <
3364 1 8 32 3 1316. 2722. 1360. <
3365 3 -3 -33 9 1197. -454. 2268. <
3365 2 9 33 -3 1197. -454. 2268. <
3365 1 -9 33 3 1197. -454. 2268. <
3366 3 3 -33 -9 1183. 1815. 907. <
3366 2 -9 33 3 1183. 1815. 907. <
3366 1 9 33 -3 1183. 1815. 907. <
3367 3 -3 -33 7 2328. 3176. 2268. <
3367 2 7 33 -3 2328. 3176. 2268. <
3367 1 -7 33 3 2328. 3176. 2268. <
3368 3 3 -33 -7 2353. 1815. 908. <
3368 2 -7 33 3 2353. 1815. 908. <
3368 1 7 33 -3 2353. 1815. 908. <
3369 3 -3 -33 5 9950. 8166. 912. o
3369 2 5 33 -3 9950. 8166. 912. o
3369 1 -5 33 3 9950. 8166. 912. o
3370 3 3 -33 -5 9875. 9980. 907. o
3370 2 -5 33 3 9875. 9980. 907. o
3370 1 5 33 -3 9875. 9980. 907. o
3371 3 -3 -33 3 17065. 13156. 924. o
3371 2 3 33 -3 17065. 13156. 924. o
3371 1 -3 33 3 17065. 13156. 924. o
3372 3 3 -33 -3 17175. 18600. 900. o
3372 2 -3 33 3 17175. 18600. 900. o
3372 1 3 33 -3 17175. 18600. 900. o
3373 3 -3 -33 1 28584. 26766. 1371. o
3373 2 1 33 -3 28584. 26766. 1371. o
3373 1 -1 33 3 28584. 26766. 1371. o
3374 3 3 -33 -1 28471. 29941. 894. o
3374 2 -1 33 3 28471. 29941. 894. o
3374 1 1 33 -3 28471. 29941. 894. o
3375 3 -3 -33 -1 28464. 24044. 1383. o
3375 2 -1 33 -3 28464. 24044. 1383. o
3375 1 1 33 3 28464. 24044. 1383. o
3376 3 3 -33 1 28590. 27219. 1368. o
3376 2 1 33 3 28590. 27219. 1368. o
3376 1 -1 33 -3 28590. 27219. 1368. o
3377 3 -3 -33 -3 17123. 17239. 907. o
3377 2 -3 33 -3 17123. 17239. 907. o
3377 1 3 33 3 17123. 17239. 907. o
3378 3 3 -33 3 17117. 18146. 1357. o
3378 2 3 33 3 17117. 18146. 1357. o
3378 1 -3 33 -3 17117. 18146. 1357. o
3379 3 -3 -33 -5 9936. 9073. 910. o
3379 2 -5 33 -3 9936. 9073. 910. o
3379 1 5 33 3 9936. 9073. 910. o
3380 3 3 -33 5 9889. 11341. 1812. o
3380 2 5 33 3 9889. 11341. 1812. o
3380 1 -5 33 -3 9889. 11341. 1812. o
3381 3 -3 -33 -7 2324. 1361. 1815. <
3381 2 -7 33 -3 2324. 1361. 1815. <
3381 1 7 33 3 2324. 1361. 1815. <
3382 3 -3 -33 -9 1200. 907. 1361. <
3382 2 -9 33 -3 1200. 907. 1361. <
3382 1 9 33 3 1200. 907. 1361. <
3383 2 8 34 -3 767. -4990. 3174. <
3383 1 -8 34 3 767. -4990. 3174. <
3384 2 -8 34 3 766. 454. 1361. <
3384 1 8 34 -3 766. 454. 1361. <
3385 2 6 34 -3 1520. 907. 1361. <
3385 1 -6 34 3 1520. 907. 1361. <
3386 2 -6 34 3 1521. 907. 908. <
3386 1 6 34 -3 1521. 907. 908. <
3387 2 4 34 -3 10781. 7712. 915. o
3387 1 -4 34 3 10781. 7712. 915. o
3388 2 -4 34 3 10778. 9980. 910. o
3388 1 4 34 -3 10778. 9980. 910. o
3389 2 2 34 -3 2046. 1815. 454. o
3389 1 -2 34 3 2046. 1815. 454. o
3390 2 -2 34 3 2047. 1815. 907. <
3390 1 2 34 -3 2047. 1815. 907. <
3391 2 0 34 -3 44199. 43551. 1367. o
3391 1 0 34 3 44199. 43551. 1367. o
3392 2 0 34 3 44199. 46273. 879. o
3392 1 0 34 -3 44199. 46273. 879. o
3393 2 -2 34 -3 2047. 2268. 907. o
3393 1 2 34 3 2047. 2268. 907. o
3394 2 2 34 3 2046. 3629. 1360. o
3394 1 -2 34 -3 2046. 3629. 1360. o
3395 2 -4 34 -3 10778. 9073. 912. o
3395 1 4 34 3 10778. 9073. 912. o
3396 2 -6 34 -3 1521. 1815. 1361. <
3396 1 6 34 3 1521. 1815. 1361. <
3397 2 6 34 3 1520. 454. 3176. <
3397 1 -6 34 -3 1520. 454. 3176. <
3398 2 -8 34 -3 766. -1361. 1361. <
3398 1 8 34 3 766. -1361. 1361. <
3399 3 -3 -35 9 4525. 4537. 2268. <
3399 2 9 35 -3 4525. 4537. 2268. <
3399 1 -9 35 3 4525. 4537. 2268. <
3400 3 3 -35 -9 4483. 2268. 1362. <
3400 2 -9 35 3 4483. 2268. 1362. <
3400 1 9 35 -3 4483. 2268. 1362. <
3401 3 -3 -35 7 8768. 4537. 2724. <
3401 2 7 35 -3 8768. 4537. 2724. <
3401 1 -7 35 3 8768. 4537. 2724. <
3402 3 3 -35 -7 8741. 10434. 902. o
3402 2 -7 35 3 8741. 10434. 902. o
3402 1 7 35 -3 8741. 10434. 902. o
3403 3 -3 -35 5 45662. 33117. 2767. o
3403 2 5 35 -3 45662. 33117. 2767. o
3403 1 -5 35 3 45662. 33117. 2767. o
3404 3 3 -35 -5 45393. 49902. 1318. o
3404 2 -5 35 3 45393. 49902. 1318. o
3404 1 5 35 -3 45393. 49902. 1318. o
3405 3 3 -35 -3 56702. 51717. 1412. o
3405 2 -3 35 3 56702. 51717. 1412. o
3405 1 3 35 -3 56702. 51717. 1412. o
3406 3 -3 -35 1 103043. 105248. 1780. o
3406 2 1 35 -3 103043. 105248. 1780. o
3406 1 -1 35 3 103043. 105248. 1780. o
3407 3 3 -35 -1 103128. 117950. 979. o
3407 2 -1 35 3 103128. 117950. 979. o
3407 1 1 35 -3 103128. 117950. 979. o
3408 3 -3 -35 -1 102907. 112053. 1149. o
3408 2 -1 35 -3 102907. 112053. 1149. o
3408 1 1 35 3 102907. 112053. 1149. o
3409 3 3 -35 1 103264. 112053. 1158. o
3409 2 1 35 3 103264. 112053. 1158. o
3409 1 -1 35 -3 103264. 112053. 1158. o
3410 3 -3 -35 -3 56657. 49448. 1432. o
3410 2 -3 35 -3 56657. 49448. 1432. o
3410 1 3 35 3 56657. 49448. 1432. o
3411 3 3 -35 3 56652. 39014. 1927. o
3411 2 3 35 3 56652. 39014. 1927. o
3411 1 -3 35 -3 56652. 39014. 1927. o
3412 3 -3 -35 -5 45586. 42190. 1836. o
3412 2 -5 35 -3 45586. 42190. 1836. o
3412 1 5 35 3 45586. 42190. 1836. o
3413 3 -3 -35 -7 8777. 4537. 1818. o
3413 2 -7 35 -3 8777. 4537. 1818. o
3413 1 7 35 3 8777. 4537. 1818. o
3414 3 -3 -35 -9 4514. 4990. 907. o
3414 2 -9 35 -3 4514. 4990. 907. o
3414 1 9 35 3 4514. 4990. 907. o
3415 2 8 36 -3 174. 2722. 2721. <
3415 1 -8 36 3 174. 2722. 2721. <
3416 2 -8 36 3 174. 454. 907. <
3416 1 8 36 -3 174. 454. 907. <
3417 2 6 36 -3 556. 2722. 1360. <
3417 1 -6 36 3 556. 2722. 1360. <
3418 2 -6 36 3 555. 454. 907. <
3418 1 6 36 -3 555. 454. 907. <
3419 2 4 36 -3 2093. 1815. 907. <
3419 1 -4 36 3 2093. 1815. 907. <
3420 2 -4 36 3 2094. 2722. 907. o
3420 1 4 36 -3 2094. 2722. 907. o
3421 2 2 36 -3 234. 907. 907. <
3421 1 -2 36 3 234. 907. 907. <
3422 2 -2 36 3 232. 907. 907. <
3422 1 2 36 -3 232. 907. 907. <
3423 2 0 36 -3 17937. 14971. 1370. o
3423 1 0 36 3 17937. 14971. 1370. o
3424 2 0 36 3 17937. 15878. 917. o
3424 1 0 36 -3 17937. 15878. 917. o
3425 2 -2 36 -3 232. -907. 907. <
3425 1 2 36 3 232. -907. 907. <
3426 2 2 36 3 234. 0. 1361. <
3426 1 -2 36 -3 234. 0. 1361. <
3427 2 -4 36 -3 2094. 1815. 907. <
3427 1 4 36 3 2094. 1815. 907. <
3428 2 -6 36 -3 555. 907. 1361. <
3428 1 6 36 3 555. 907. 1361. <
3429 2 -8 36 -3 174. -1361. 907. <
3429 1 8 36 3 174. -1361. 907. <
3430 3 -3 -37 9 9134. 6805. 2270. o
3430 2 9 37 -3 9134. 6805. 2270. o
3430 1 -9 37 3 9134. 6805. 2270. o
3431 3 3 -37 -9 9007. 9980. 1359. o
3431 2 -9 37 3 9007. 9980. 1359. o
3431 1 9 37 -3 9007. 9980. 1359. o
3432 3 -3 -37 7 18856. 18600. 2722. o
3432 2 7 37 -3 18856. 18600. 2722. o
3432 1 -7 37 3 18856. 18600. 2722. o
3433 3 3 -37 -7 19142. 25858. 1791. o
3433 2 -7 37 3 19142. 25858. 1791. o
3433 1 7 37 -3 19142. 25858. 1791. o
3434 3 -3 -37 5 99116. 73946. 3778. o
3434 2 5 37 -3 99116. 73946. 3778. o
3434 1 -5 37 3 99116. 73946. 3778. o
3435 3 3 -37 -5 98145. 111599. 1589. o
3435 2 -5 37 3 98145. 111599. 1589. o
3435 1 5 37 -3 98145. 111599. 1589. o
3436 3 3 -37 -3 83966. 92999. 2171. o
3436 2 -3 37 3 83966. 92999. 2171. o
3436 1 3 37 -3 83966. 92999. 2171. o
3437 3 3 -37 -1 133591. 145170. 1556. o
3437 2 -1 37 3 133591. 145170. 1556. o
3437 1 1 37 -3 133591. 145170. 1556. o
3438 3 -3 -37 -1 134728. 147438. 1524. o
3438 2 -1 37 -3 134728. 147438. 1524. o
3438 1 1 37 3 134728. 147438. 1524. o
3439 3 3 -37 1 134670. 151975. 1394. o
3439 2 1 37 3 134670. 151975. 1394. o
3439 1 -1 37 -3 134670. 151975. 1394. o
3440 3 -3 -37 -3 84017. 93907. 1172. o
3440 2 -3 37 -3 84017. 93907. 1172. o
3440 1 3 37 3 84017. 93907. 1172. o
3441 3 3 -37 3 84023. 66687. 1991. o
3441 2 3 37 3 84023. 66687. 1991. o
3441 1 -3 37 -3 84023. 66687. 1991. o
3442 3 -3 -37 -5 98667. 125209. 3395. o
3442 2 -5 37 -3 98667. 125209. 3395. o
3442 1 5 37 3 98667. 125209. 3395. o
3443 3 -3 -37 -7 18887. 20414. 1810. o
3443 2 -7 37 -3 18887. 20414. 1810. o
3443 1 7 37 3 18887. 20414. 1810. o
3444 3 -3 -37 -9 9111. 5444. 1366. o
3444 2 -9 37 -3 9111. 5444. 1366. o
3444 1 9 37 3 9111. 5444. 1366. o
3445 2 8 38 -3 21. 6351. 2719. o
3445 1 -8 38 3 21. 6351. 2719. o
3446 2 -8 38 3 21. 0. 1361. <
3446 1 8 38 -3 21. 0. 1361. <
3447 2 6 38 -3 12. 1361. 1814. <
3447 1 -6 38 3 12. 1361. 1814. <
3448 2 -6 38 3 12. -454. 907. <
3448 1 6 38 -3 12. -454. 907. <
3449 2 4 38 -3 159. 0. 907. <
3449 1 -4 38 3 159. 0. 907. <
3450 2 -4 38 3 160. 907. 907. <
3450 1 4 38 -3 160. 907. 907. <
3451 2 2 38 -3 1585. 1815. 907. <
3451 1 -2 38 3 1585. 1815. 907. <
3452 2 -2 38 3 1584. 2268. 907. o
3452 1 2 38 -3 1584. 2268. 907. o
3453 2 0 38 -3 6471. 4083. 1363. o
3453 1 0 38 3 6471. 4083. 1363. o
3454 2 0 38 3 6471. 4083. 460. o
3454 1 0 38 -3 6471. 4083. 460. o
3455 2 -2 38 -3 1584. 1815. 907. <
3455 1 2 38 3 1584. 1815. 907. <
3456 2 2 38 3 1585. 1815. 907. <
3456 1 -2 38 -3 1585. 1815. 907. <
3457 2 -4 38 -3 160. -907. 907. <
3457 1 4 38 3 160. -907. 907. <
3458 2 4 38 3 159. 0. 907. <
3458 1 -4 38 -3 159. 0. 907. <
3459 2 -6 38 -3 12. 5444. 1812. o
3459 1 6 38 3 12. 5444. 1812. o
3460 2 -8 38 -3 21. 2722. 906. o
3460 1 8 38 3 21. 2722. 906. o
3461 3 -3 -39 9 1007. -454. 1815. <
3461 2 9 39 -3 1007. -454. 1815. <
3461 1 -9 39 3 1007. -454. 1815. <
3462 3 3 -39 -9 1004. 454. 1361. <
3462 2 -9 39 3 1004. 454. 1361. <
3462 1 9 39 -3 1004. 454. 1361. <
3463 3 -3 -39 7 1186. -907. 2722. <
3463 2 7 39 -3 1186. -907. 2722. <
3463 1 -7 39 3 1186. -907. 2722. <
3464 3 3 -39 -7 1168. 2722. 1360. <
3464 2 -7 39 3 1168. 2722. 1360. <
3464 1 7 39 -3 1168. 2722. 1360. <
3465 3 -3 -39 5 3757. 2722. 2269. <
3465 2 5 39 -3 3757. 2722. 2269. <
3465 1 -5 39 3 3757. 2722. 2269. <
3466 3 3 -39 -5 3736. 907. 909. <
3466 2 -5 39 3 3736. 907. 909. <
3466 1 5 39 -3 3736. 907. 909. <
3467 3 -3 -39 3 3299. 1361. 1362. <
3467 2 3 39 -3 3299. 1361. 1362. <
3467 1 -3 39 3 3299. 1361. 1362. <
3468 3 3 -39 -3 3235. 454. 1362. <
3468 2 -3 39 3 3235. 454. 1362. <
3468 1 3 39 -3 3235. 454. 1362. <
3469 3 3 -39 -1 2053. 907. 908. <
3469 2 -1 39 3 2053. 907. 908. <
3469 1 1 39 -3 2053. 907. 908. <
3470 3 -3 -39 -1 2076. 454. 908. <
3470 2 -1 39 -3 2076. 454. 908. <
3470 1 1 39 3 2076. 454. 908. <
3471 3 3 -39 1 2059. -454. 908. <
3471 2 1 39 3 2059. -454. 908. <
3471 1 -1 39 -3 2059. -454. 908. <
3472 3 -3 -39 -3 3265. 0. 908. <
3472 2 -3 39 -3 3265. 0. 908. <
3472 1 3 39 3 3265. 0. 908. <
3473 3 3 -39 3 3269. 2722. 908. o
3473 2 3 39 3 3269. 2722. 908. o
3473 1 -3 39 -3 3269. 2722. 908. o
3474 3 -3 -39 -5 3745. -1815. 1815. <
3474 2 -5 39 -3 3745. -1815. 1815. <
3474 1 5 39 3 3745. -1815. 1815. <
3475 3 -3 -39 -7 1179. 454. 1361. <
3475 2 -7 39 -3 1179. 454. 1361. <
3475 1 7 39 3 1179. 454. 1361. <
3476 3 -3 -39 -9 1005. 3176. 906. o
3476 2 -9 39 -3 1005. 3176. 906. o
3476 1 9 39 3 1005. 3176. 906. o
3477 2 8 40 -3 206. 907. 2268. <
3477 1 -8 40 3 206. 907. 2268. <
3478 2 -8 40 3 205. 1815. 1361. <
3478 1 8 40 -3 205. 1815. 1361. <
3479 2 6 40 -3 541. 2268. 1814. <
3479 1 -6 40 3 541. 2268. 1814. <
3480 2 -6 40 3 543. 454. 907. <
3480 1 6 40 -3 543. 454. 907. <
3481 2 4 40 -3 105. 907. 907. <
3481 1 -4 40 3 105. 907. 907. <
3482 2 -4 40 3 104. 907. 907. <
3482 1 4 40 -3 104. 907. 907. <
3483 2 2 40 -3 12493. 15878. 893. o
3483 1 -2 40 3 12493. 15878. 893. o
3484 2 -2 40 3 12504. 16332. 890. o
3484 1 2 40 -3 12504. 16332. 890. o
3485 2 0 40 -3 1752. 454. 908. <
3485 1 0 40 3 1752. 454. 908. <
3486 2 0 40 3 1752. 1815. 907. <
3486 1 0 40 -3 1752. 1815. 907. <
3487 2 -2 40 -3 12504. 14971. 897. o
3487 1 2 40 3 12504. 14971. 897. o
3488 2 -4 40 -3 104. 907. 907. <
3488 1 4 40 3 104. 907. 907. <
3489 2 4 40 3 105. 0. 1361. <
3489 1 -4 40 -3 105. 0. 1361. <
3490 2 -6 40 -3 543. -1361. 2268. <
3490 1 6 40 3 543. -1361. 2268. <
3491 2 -8 40 -3 205. 0. 907. <
3491 1 8 40 3 205. 0. 907. <
3492 3 -3 -41 9 211. 454. 1815. <
3492 2 9 41 -3 211. 454. 1815. <
3492 1 -9 41 3 211. 454. 1815. <
3493 3 3 -41 -9 209. 2268. 1360. <
3493 2 -9 41 3 209. 2268. 1360. <
3493 1 9 41 -3 209. 2268. 1360. <
3494 3 -3 -41 7 219. 454. 2722. <
3494 2 7 41 -3 219. 454. 2722. <
3494 1 -7 41 3 219. 454. 2722. <
3495 3 3 -41 -7 227. -454. 1361. <
3495 2 -7 41 3 227. -454. 1361. <
3495 1 7 41 -3 227. -454. 1361. <
3496 3 -3 -41 5 185. -1361. 2268. <
3496 2 5 41 -3 185. -1361. 2268. <
3496 1 -5 41 3 185. -1361. 2268. <
3497 3 3 -41 -5 176. 2722. 906. o
3497 2 -5 41 3 176. 2722. 906. o
3497 1 5 41 -3 176. 2722. 906. o
3498 3 -3 -41 3 269. 454. 1361. <
3498 2 3 41 -3 269. 454. 1361. <
3498 1 -3 41 3 269. 454. 1361. <
3499 3 3 -41 -3 280. 907. 907. <
3499 2 -3 41 3 280. 907. 907. <
3499 1 3 41 -3 280. 907. 907. <
3500 3 -3 -41 1 610. 454. 907. <
3500 2 1 41 -3 610. 454. 907. <
3500 1 -1 41 3 610. 454. 907. <
3501 3 3 -41 -1 589. 1815. 907. <
3501 2 -1 41 3 589. 1815. 907. <
3501 1 1 41 -3 589. 1815. 907. <
3502 3 -3 -41 -1 597. 454. 907. <
3502 2 -1 41 -3 597. 454. 907. <
3502 1 1 41 3 597. 454. 907. <
3503 3 3 -41 1 602. 907. 907. <
3503 2 1 41 3 602. 907. 907. <
3503 1 -1 41 -3 602. 907. 907. <
3504 3 -3 -41 -3 275. 907. 907. <
3504 2 -3 41 -3 275. 907. 907. <
3504 1 3 41 3 275. 907. 907. <
3505 3 -3 -41 -5 180. 2268. 1360. <
3505 2 -5 41 -3 180. 2268. 1360. <
3505 1 5 41 3 180. 2268. 1360. <
3506 3 3 -41 5 180. 454. 1361. <
3506 2 5 41 3 180. 454. 1361. <
3506 1 -5 41 -3 180. 454. 1361. <
3507 3 -3 -41 -7 222. -454. 1361. <
3507 2 -7 41 -3 222. -454. 1361. <
3507 1 7 41 3 222. -454. 1361. <
3508 3 -3 -41 -9 210. 907. 907. <
3508 2 -9 41 -3 210. 907. 907. <
3508 1 9 41 3 210. 907. 907. <
3509 2 8 42 -3 649. 1361. 2268. <
3509 1 -8 42 3 649. 1361. 2268. <
3510 2 -8 42 3 651. 0. 1361. <
3510 1 8 42 -3 651. 0. 1361. <
3511 2 6 42 -3 8363. 4083. 1818. o
3511 1 -6 42 3 8363. 4083. 1818. o
3512 2 -6 42 3 8355. 6805. 1363. o
3512 1 6 42 -3 8355. 6805. 1363. o
3513 2 -4 42 3 4168. 5444. 905. o
3513 1 4 42 -3 4168. 5444. 905. o
3514 2 2 42 -3 129277. 157872. 1698. o
3514 1 -2 42 3 129277. 157872. 1698. o
3515 2 -2 42 3 129264. 136097. 1675. o
3515 1 2 42 -3 129264. 136097. 1675. o
3516 2 0 42 -3 1595. 2722. 907. o
3516 1 0 42 3 1595. 2722. 907. o
3517 2 -2 42 -3 129264. 128385. 2282. o
3517 1 2 42 3 129264. 128385. 2282. o
3518 2 -4 42 -3 4168. 3629. 908. o
3518 1 4 42 3 4168. 3629. 908. o
3519 2 -6 42 -3 8355. 4083. 2271. <
3519 1 6 42 3 8355. 4083. 2271. <
3520 2 -8 42 -3 651. 907. 907. <
3520 1 8 42 3 651. 907. 907. <
3521 3 -3 -43 7 350. 454. 4083. <
3521 2 7 43 -3 350. 454. 4083. <
3521 1 -7 43 3 350. 454. 4083. <
3522 3 3 -43 -7 353. -454. 1361. <
3522 2 -7 43 3 353. -454. 1361. <
3522 1 7 43 -3 353. -454. 1361. <
3523 3 -3 -43 5 1447. 1361. 1361. <
3523 2 5 43 -3 1447. 1361. 1361. <
3523 1 -5 43 3 1447. 1361. 1361. <
3524 3 3 -43 -5 1448. -454. 907. <
3524 2 -5 43 3 1448. -454. 907. <
3524 1 5 43 -3 1448. -454. 907. <
3525 3 -3 -43 3 3639. 2722. 1362. <
3525 2 3 43 -3 3639. 2722. 1362. <
3525 1 -3 43 3 3639. 2722. 1362. <
3526 3 3 -43 -3 3627. 4537. 906. o
3526 2 -3 43 3 3627. 4537. 906. o
3526 1 3 43 -3 3627. 4537. 906. o
3527 3 -3 -43 1 5655. 6805. 905. o
3527 2 1 43 -3 5655. 6805. 905. o
3527 1 -1 43 3 5655. 6805. 905. o
3528 3 3 -43 -1 5658. 6351. 906. o
3528 2 -1 43 3 5658. 6351. 906. o
3528 1 1 43 -3 5658. 6351. 906. o
3529 3 -3 -43 -1 5665. 6351. 906. o
3529 2 -1 43 -3 5665. 6351. 906. o
3529 1 1 43 3 5665. 6351. 906. o
3530 3 3 -43 1 5648. 5898. 907. o
3530 2 1 43 3 5648. 5898. 907. o
3530 1 -1 43 -3 5648. 5898. 907. o
3531 3 -3 -43 -3 3633. 4537. 906. o
3531 2 -3 43 -3 3633. 4537. 906. o
3531 1 3 43 3 3633. 4537. 906. o
3532 3 -3 -43 -5 1445. 2268. 1361. <
3532 2 -5 43 -3 1445. 2268. 1361. <
3532 1 5 43 3 1445. 2268. 1361. <
3533 3 3 -43 5 1450. 1361. 1361. <
3533 2 5 43 3 1450. 1361. 1361. <
3533 1 -5 43 -3 1450. 1361. 1361. <
3534 3 -3 -43 -7 353. 3176. 1814. <
3534 2 -7 43 -3 353. 3176. 1814. <
3534 1 7 43 3 353. 3176. 1814. <
3535 2 8 44 -3 408. 454. 1815. <
3535 1 -8 44 3 408. 454. 1815. <
3536 2 -8 44 3 406. 907. 907. <
3536 1 8 44 -3 406. 907. 907. <
3537 2 6 44 -3 4387. 8166. 1811. o
3537 1 -6 44 3 4387. 8166. 1811. o
3538 2 -6 44 3 4399. 8166. 1356. o
3538 1 6 44 -3 4399. 8166. 1356. o
3539 2 -4 44 3 1635. 1815. 907. <
3539 1 4 44 -3 1635. 1815. 907. <
3540 2 2 44 -3 64172. 73039. 1721. o
3540 1 -2 44 3 64172. 73039. 1721. o
3541 2 -2 44 3 64199. 74400. 1705. o
3541 1 2 44 -3 64199. 74400. 1705. o
3542 2 0 44 -3 159. 2268. 1360. <
3542 1 0 44 3 159. 2268. 1360. <
3543 2 0 44 3 159. -454. 1361. <
3543 1 0 44 -3 159. -454. 1361. <
3544 2 -2 44 -3 64199. 72131. 1248. o
3544 1 2 44 3 64199. 72131. 1248. o
3545 2 2 44 3 64172. 88009. 1508. o
3545 1 -2 44 -3 64172. 88009. 1508. o
3546 2 -4 44 -3 1635. 1361. 907. <
3546 1 4 44 3 1635. 1361. 907. <
3547 2 -6 44 -3 4399. 4990. 2268. o
3547 1 6 44 3 4399. 4990. 2268. o
3548 2 -8 44 -3 406. 907. 907. <
3548 1 8 44 3 406. 907. 907. <
3549 3 -3 -45 7 1653. -5898. 4081. <
3549 2 7 45 -3 1653. -5898. 4081. <
3549 1 -7 45 3 1653. -5898. 4081. <
3550 3 3 -45 -7 1663. 2722. 1360. <
3550 2 -7 45 3 1663. 2722. 1360. <
3550 1 7 45 -3 1663. 2722. 1360. <
3551 3 -3 -45 5 5823. 5898. 907. o
3551 2 5 45 -3 5823. 5898. 907. o
3551 1 -5 45 3 5823. 5898. 907. o
3552 3 3 -45 -5 5811. 7258. 1359. o
3552 2 -5 45 3 5811. 7258. 1359. o
3552 1 5 45 -3 5811. 7258. 1359. o
3553 3 -3 -45 3 14852. 14517. 909. o
3553 2 3 45 -3 14852. 14517. 909. o
3553 1 -3 45 3 14852. 14517. 909. o
3554 3 3 -45 -3 14847. 18146. 891. o
3554 2 -3 45 3 14847. 18146. 891. o
3554 1 3 45 -3 14847. 18146. 891. o
3555 3 -3 -45 1 25619. 23136. 925. o
3555 2 1 45 -3 25619. 23136. 925. o
3555 1 -1 45 3 25619. 23136. 925. o
3556 3 3 -45 -1 25523. 28127. 886. o
3556 2 -1 45 3 25523. 28127. 886. o
3556 1 1 45 -3 25523. 28127. 886. o
3557 3 -3 -45 -1 25576. 26312. 1357. o
3557 2 -1 45 -3 25576. 26312. 1357. o
3557 1 1 45 3 25576. 26312. 1357. o
3558 3 3 -45 1 25566. 31756. 1324. o
3558 2 1 45 3 25566. 31756. 1324. o
3558 1 -1 45 -3 25566. 31756. 1324. o
3559 3 -3 -45 -3 14849. 14517. 909. o
3559 2 -3 45 -3 14849. 14517. 909. o
3559 1 3 45 3 14849. 14517. 909. o
3560 3 3 -45 3 14849. 19054. 1346. o
3560 2 3 45 3 14849. 19054. 1346. o
3560 1 -3 45 -3 14849. 19054. 1346. o
3561 3 -3 -45 -5 5818. 4537. 1816. o
3561 2 -5 45 -3 5818. 4537. 1816. o
3561 1 5 45 3 5818. 4537. 1816. o
3562 3 3 -45 5 5817. 9527. 1810. o
3562 2 5 45 3 5817. 9527. 1810. o
3562 1 -5 45 -3 5817. 9527. 1810. o
3563 3 -3 -45 -7 1651. 3176. 1360. o
3563 2 -7 45 -3 1651. 3176. 1360. o
3563 1 7 45 3 1651. 3176. 1360. o
3564 2 8 46 -3 197. 907. 2268. <
3564 1 -8 46 3 197. 907. 2268. <
3565 2 -8 46 3 196. 454. 1361. <
3565 1 8 46 -3 196. 454. 1361. <
3566 2 6 46 -3 1242. 1361. 1815. <
3566 1 -6 46 3 1242. 1361. 1815. <
3567 2 -6 46 3 1243. -454. 1815. <
3567 1 6 46 -3 1243. -454. 1815. <
3568 2 4 46 -3 516. 907. 907. <
3568 1 -4 46 3 516. 907. 907. <
3569 2 -4 46 3 517. -454. 907. <
3569 1 4 46 -3 517. -454. 907. <
3570 2 2 46 -3 12356. 10434. 914. o
3570 1 -2 46 3 12356. 10434. 914. o
3571 2 -2 46 3 12353. 11341. 911. o
3571 1 2 46 -3 12353. 11341. 911. o
3572 2 0 46 -3 23. 0. 1361. <
3572 1 0 46 3 23. 0. 1361. <
3573 2 0 46 3 23. 907. 907. <
3573 1 0 46 -3 23. 907. 907. <
3574 2 -2 46 -3 12353. 11341. 911. o
3574 1 2 46 3 12353. 11341. 911. o
3575 2 2 46 3 12356. 13156. 1359. o
3575 1 -2 46 -3 12356. 13156. 1359. o
3576 2 -4 46 -3 517. 1815. 1361. <
3576 1 4 46 3 517. 1815. 1361. <
3577 2 4 46 3 516. 907. 1361. <
3577 1 -4 46 -3 516. 907. 1361. <
3578 2 -6 46 -3 1243. -4083. 2267. <
3578 1 6 46 3 1243. -4083. 2267. <
3579 2 -8 46 -3 196. 907. 907. <
3579 1 8 46 3 196. 907. 907. <
3580 3 -3 -47 7 5141. 4083. 3630. <
3580 2 7 47 -3 5141. 4083. 3630. <
3580 1 -7 47 3 5141. 4083. 3630. <
3581 3 3 -47 -7 5185. 3176. 1816. <
3581 2 -7 47 3 5185. 3176. 1816. <
3581 1 7 47 -3 5185. 3176. 1816. <
3582 3 -3 -47 5 21860. 11795. 3188. o
3582 2 5 47 -3 21860. 11795. 3188. o
3582 1 -5 47 3 21860. 11795. 3188. o
3583 3 3 -47 -5 21935. 23590. 1809. o
3583 2 -5 47 3 21935. 23590. 1809. o
3583 1 5 47 -3 21935. 23590. 1809. o
3584 3 -3 -47 3 42737. 35839. 1412. o
3584 2 3 47 -3 42737. 35839. 1412. o
3584 1 -3 47 3 42737. 35839. 1412. o
3585 3 3 -47 -3 42765. 35839. 1853. o
3585 2 -3 47 3 42765. 35839. 1853. o
3585 1 3 47 -3 42765. 35839. 1853. o
3586 3 -3 -47 1 70396. 64873. 2311. o
3586 2 1 47 -3 70396. 64873. 2311. o
3586 1 -1 47 3 70396. 64873. 2311. o
3587 3 3 -47 -1 70281. 73039. 1321. o
3587 2 -1 47 3 70281. 73039. 1321. o
3587 1 1 47 -3 70281. 73039. 1321. o
3588 3 -3 -47 -1 70382. 72131. 1796. o
3588 2 -1 47 -3 70382. 72131. 1796. o
3588 1 1 47 3 70382. 72131. 1796. o
3589 3 3 -47 1 70295. 80751. 1692. o
3589 2 1 47 3 70295. 80751. 1692. o
3589 1 -1 47 -3 70295. 80751. 1692. o
3590 3 -3 -47 -3 42752. 34478. 1420. o
3590 2 -3 47 -3 42752. 34478. 1420. o
3590 1 3 47 3 42752. 34478. 1420. o
3591 3 3 -47 3 42750. 31302. 1873. o
3591 2 3 47 3 42750. 31302. 1873. o
3591 1 -3 47 -3 42750. 31302. 1873. o
3592 3 -3 -47 -5 21874. 17239. 2278. o
3592 2 -5 47 -3 21874. 17239. 2278. o
3592 1 5 47 3 21874. 17239. 2278. o
3593 3 -3 -47 -7 5147. 5444. 1361. o
3593 2 -7 47 -3 5147. 5444. 1361. o
3593 1 7 47 3 5147. 5444. 1361. o
3594 2 8 48 -3 50. 3629. 1813. <
3594 1 -8 48 3 50. 3629. 1813. <
3595 2 -8 48 3 50. -2268. 1360. <
3595 1 8 48 -3 50. -2268. 1360. <
3596 2 6 48 -3 141. -1361. 1814. <
3596 1 -6 48 3 141. -1361. 1814. <
3597 2 -6 48 3 140. -907. 1815. <
3597 1 6 48 -3 140. -907. 1815. <
3598 2 4 48 -3 101. -454. 1361. <
3598 1 -4 48 3 101. -454. 1361. <
3599 2 -4 48 3 102. 1815. 1361. <
3599 1 4 48 -3 102. 1815. 1361. <
3600 2 2 48 -3 3268. 1815. 908. <
3600 1 -2 48 3 3268. 1815. 908. <
3601 2 -2 48 3 3266. 3176. 1815. <
3601 1 2 48 -3 3266. 3176. 1815. <
3602 2 0 48 -3 1432. 1815. 907. <
3602 1 0 48 3 1432. 1815. 907. <
3603 2 0 48 3 1432. 1815. 1361. <
3603 1 0 48 -3 1432. 1815. 1361. <
3604 2 -2 48 -3 3266. 2722. 908. o
3604 1 2 48 3 3266. 2722. 908. o
3605 2 2 48 3 3268. 3629. 1361. o
3605 1 -2 48 -3 3268. 3629. 1361. o
3606 2 -4 48 -3 102. 454. 1361. <
3606 1 4 48 3 102. 454. 1361. <
3607 2 4 48 3 101. 454. 1361. <
3607 1 -4 48 -3 101. 454. 1361. <
3608 2 -6 48 -3 140. -907. 1815. <
3608 1 6 48 3 140. -907. 1815. <
3609 2 -8 48 -3 50. -907. 907. <
3609 1 8 48 3 50. -907. 907. <
3610 3 -3 -49 7 14647. 2268. 3182. <
3610 2 7 49 -3 14647. 2268. 3182. <
3610 1 -7 49 3 14647. 2268. 3182. <
3611 3 3 -49 -7 14760. 9527. 1823. o
3611 2 -7 49 3 14760. 9527. 1823. o
3611 1 7 49 -3 14760. 9527. 1823. o
3612 3 -3 -49 5 75417. 50356. 4622. o
3612 2 5 49 -3 75417. 50356. 4622. o
3612 1 -5 49 3 75417. 50356. 4622. o
3613 3 3 -49 -5 75433. 66234. 3676. o
3613 2 -5 49 3 75433. 66234. 3676. o
3613 1 5 49 -3 75433. 66234. 3676. o
3614 3 -3 -49 3 195261. 163770. 4012. o
3614 2 3 49 -3 195261. 163770. 4012. o
3614 1 -3 49 3 195261. 163770. 4012. o
3615 3 3 -49 -3 195990. 215940. 2276. o
3615 2 -3 49 3 195990. 215940. 2276. o
3615 1 3 49 -3 195990. 215940. 2276. o
3616 3 -3 -49 1 389582. 347047. 4986. o
3616 2 1 49 -3 389582. 347047. 4986. o
3616 1 -1 49 3 389582. 347047. 4986. o
3617 3 3 -49 -1 389921. 491763. 9409. o
3617 2 -1 49 3 389921. 491763. 9409. o
3617 1 1 49 -3 389921. 491763. 9409. o
3618 3 -3 -49 -1 389562. 420085. 858. o
3618 2 -1 49 -3 389562. 420085. 858. o
3618 1 1 49 3 389562. 420085. 858. o
3619 3 3 -49 1 389942. 473163. 9108. o
3619 2 1 49 3 389942. 473163. 9108. o
3619 1 -1 49 -3 389942. 473163. 9108. o
3620 3 -3 -49 -3 195646. 200970. 2140. o
3620 2 -3 49 -3 195646. 200970. 2140. o
3620 1 3 49 3 195646. 200970. 2140. o
3621 3 3 -49 3 195604. 259491. 1403. o
3621 2 3 49 3 195604. 259491. 1403. o
3621 1 -3 49 -3 195604. 259491. 1403. o
3622 3 -3 -49 -5 75475. 43551. 3754. o
3622 2 -5 49 -3 75475. 43551. 3754. o
3622 1 5 49 3 75475. 43551. 3754. o
3623 3 -3 -49 -7 14690. 13156. 1818. o
3623 2 -7 49 -3 14690. 13156. 1818. o
3623 1 7 49 3 14690. 13156. 1818. o
3624 2 8 50 -3 6. 907. 1815. <
3624 1 -8 50 3 6. 907. 1815. <
3625 2 -8 50 3 6. 454. 1361. <
3625 1 8 50 -3 6. 454. 1361. <
3626 2 6 50 -3 25. 2268. 2268. <
3626 1 -6 50 3 25. 2268. 2268. <
3627 2 -6 50 3 25. 1815. 1814. <
3627 1 6 50 -3 25. 1815. 1814. <
3628 2 4 50 -3 299. 907. 2268. <
3628 1 -4 50 3 299. 907. 2268. <
3629 2 -4 50 3 298. 907. 1361. <
3629 1 4 50 -3 298. 907. 1361. <
3630 2 2 50 -3 880. 0. 907. <
3630 1 -2 50 3 880. 0. 907. <
3631 2 -2 50 3 879. 2722. 1814. <
3631 1 2 50 -3 879. 2722. 1814. <
3632 2 0 50 -3 3132. 3176. 907. o
3632 1 0 50 3 3132. 3176. 907. o
3633 2 0 50 3 3132. 5444. 1359. o
3633 1 0 50 -3 3132. 5444. 1359. o
3634 2 -2 50 -3 879. 454. 907. <
3634 1 2 50 3 879. 454. 907. <
3635 2 2 50 3 880. 454. 1361. <
3635 1 -2 50 -3 880. 454. 1361. <
3636 2 -4 50 -3 298. -454. 1361. <
3636 1 4 50 3 298. -454. 1361. <
3637 2 4 50 3 299. 1361. 1361. <
3637 1 -4 50 -3 299. 1361. 1361. <
3638 2 -6 50 -3 25. 1815. 1814. <
3638 1 6 50 3 25. 1815. 1814. <
3639 2 -8 50 -3 6. 907. 907. <
3639 1 8 50 3 6. 907. 907. <
3640 3 -3 -51 7 797. -1361. 2722. <
3640 2 7 51 -3 797. -1361. 2722. <
3640 1 -7 51 3 797. -1361. 2722. <
3641 3 3 -51 -7 804. -2268. 1814. <
3641 2 -7 51 3 804. -2268. 1814. <
3641 1 7 51 -3 804. -2268. 1814. <
3642 3 -3 -51 5 2200. -907. 1815. <
3642 2 5 51 -3 2200. -907. 1815. <
3642 1 -5 51 3 2200. -907. 1815. <
3643 3 3 -51 -5 2235. -3176. 1814. <
3643 2 -5 51 3 2235. -3176. 1814. <
3643 1 5 51 -3 2235. -3176. 1814. <
3644 3 -3 -51 3 1706. 1815. 2268. <
3644 2 3 51 -3 1706. 1815. 2268. <
3644 1 -3 51 3 1706. 1815. 2268. <
3645 3 3 -51 -3 1759. 2722. 2268. <
3645 2 -3 51 3 1759. 2722. 2268. <
3645 1 3 51 -3 1759. 2722. 2268. <
3646 3 -3 -51 1 3126. 907. 1362. <
3646 2 1 51 -3 3126. 907. 1362. <
3646 1 -1 51 3 3126. 907. 1362. <
3647 3 3 -51 -1 3182. 1815. 1815. <
3647 2 -1 51 3 3182. 1815. 1815. <
3647 1 1 51 -3 3182. 1815. 1815. <
3648 3 -3 -51 -1 3143. 1361. 908. <
3648 2 -1 51 -3 3143. 1361. 908. <
3648 1 1 51 3 3143. 1361. 908. <
3649 3 3 -51 1 3165. 0. 1362. <
3649 2 1 51 3 3165. 0. 1362. <
3649 1 -1 51 -3 3165. 0. 1362. <
3650 3 -3 -51 -3 1734. 907. 1361. <
3650 2 -3 51 -3 1734. 907. 1361. <
3650 1 3 51 3 1734. 907. 1361. <
3651 3 3 -51 3 1731. 0. 1361. <
3651 2 3 51 3 1731. 0. 1361. <
3651 1 -3 51 -3 1731. 0. 1361. <
3652 3 -3 -51 -5 2219. -3176. 3175. <
3652 2 -5 51 -3 2219. -3176. 3175. <
3652 1 5 51 3 2219. -3176. 3175. <
3653 3 -3 -51 -7 801. 4083. 1359. o
3653 2 -7 51 -3 801. 4083. 1359. o
3653 1 7 51 3 801. 4083. 1359. o
3654 2 8 52 -3 64. 454. 1815. <
3654 1 -8 52 3 64. 454. 1815. <
3655 2 -8 52 3 64. -1361. 1814. <
3655 1 8 52 -3 64. -1361. 1814. <
3656 2 6 52 -3 19. -907. 2268. <
3656 1 -6 52 3 19. -907. 2268. <
3657 2 -6 52 3 20. -2722. 2268. <
3657 1 6 52 -3 20. -2722. 2268. <
3658 2 4 52 -3 1290. 1361. 2722. <
3658 1 -4 52 3 1290. 1361. 2722. <
3659 2 -4 52 3 1287. 1815. 2722. <
3659 1 4 52 -3 1287. 1815. 2722. <
3660 2 2 52 -3 148. 907. 907. <
3660 1 -2 52 3 148. 907. 907. <
3661 2 -2 52 3 148. 1815. 2268. <
3661 1 2 52 -3 148. 1815. 2268. <
3662 2 0 52 -3 7833. 8166. 907. o
3662 1 0 52 3 7833. 8166. 907. o
3663 2 0 52 3 7833. 10888. 1355. o
3663 1 0 52 -3 7833. 10888. 1355. o
3664 2 -2 52 -3 148. 1815. 907. <
3664 1 2 52 3 148. 1815. 907. <
3665 2 2 52 3 148. 454. 1361. <
3665 1 -2 52 -3 148. 454. 1361. <
3666 2 -4 52 -3 1287. -907. 1815. <
3666 1 4 52 3 1287. -907. 1815. <
3667 2 4 52 3 1290. 1815. 1361. <
3667 1 -4 52 -3 1290. 1815. 1361. <
3668 2 -6 52 -3 20. 1815. 1814. <
3668 1 6 52 3 20. 1815. 1814. <
3669 2 -8 52 -3 64. -907. 907. <
3669 1 8 52 3 64. -907. 907. <
3670 3 -3 -53 7 213. 454. 2268. <
3670 2 7 53 -3 213. 454. 2268. <
3670 1 -7 53 3 213. 454. 2268. <
3671 3 3 -53 -7 214. -1815. 1814. <
3671 2 -7 53 3 214. -1815. 1814. <
3671 1 7 53 -3 214. -1815. 1814. <
3672 3 -3 -53 5 358. 907. 1361. <
3672 2 5 53 -3 358. 907. 1361. <
3672 1 -5 53 3 358. 907. 1361. <
3673 3 3 -53 -5 354. -1815. 2722. <
3673 2 -5 53 3 354. -1815. 2722. <
3673 1 5 53 -3 354. -1815. 2722. <
3674 3 -3 -53 3 1041. 2268. 907. o
3674 2 3 53 -3 1041. 2268. 907. o
3674 1 -3 53 3 1041. 2268. 907. o
3675 3 3 -53 -3 1053. -1361. 2268. <
3675 2 -3 53 3 1053. -1361. 2268. <
3675 1 3 53 -3 1053. -1361. 2268. <
3676 3 -3 -53 1 1110. 2268. 907. o
3676 2 1 53 -3 1110. 2268. 907. o
3676 1 -1 53 3 1110. 2268. 907. o
3677 3 3 -53 -1 1114. -907. 1815. <
3677 2 -1 53 3 1114. -907. 1815. <
3677 1 1 53 -3 1114. -907. 1815. <
3678 3 -3 -53 -1 1107. 1815. 907. <
3678 2 -1 53 -3 1107. 1815. 907. <
3678 1 1 53 3 1107. 1815. 907. <
3679 3 3 -53 1 1117. 2268. 1361. <
3679 2 1 53 3 1117. 2268. 1361. <
3679 1 -1 53 -3 1117. 2268. 1361. <
3680 3 -3 -53 -3 1047. 1361. 1815. <
3680 2 -3 53 -3 1047. 1361. 1815. <
3680 1 3 53 3 1047. 1361. 1815. <
3681 3 3 -53 3 1047. 1361. 1361. <
3681 2 3 53 3 1047. 1361. 1361. <
3681 1 -3 53 -3 1047. 1361. 1361. <
3682 3 -3 -53 -5 357. -454. 2268. <
3682 2 -5 53 -3 357. -454. 2268. <
3682 1 5 53 3 357. -454. 2268. <
3683 3 3 -53 5 354. 0. 1361. <
3683 2 5 53 3 354. 0. 1361. <
3683 1 -5 53 -3 354. 0. 1361. <
3684 3 -3 -53 -7 214. 454. 1361. <
3684 2 -7 53 -3 214. 454. 1361. <
3684 1 7 53 3 214. 454. 1361. <
3685 2 8 54 -3 244. -1361. 1361. <
3685 1 -8 54 3 244. -1361. 1361. <
3686 2 -8 54 3 245. 0. 1361. <
3686 1 8 54 -3 245. 0. 1361. <
3687 2 6 54 -3 382. 1815. 2268. <
3687 1 -6 54 3 382. 1815. 2268. <
3688 2 -6 54 3 380. -454. 2268. <
3688 1 6 54 -3 380. -454. 2268. <
3689 2 4 54 -3 9027. 4537. 2725. <
3689 1 -4 54 3 9027. 4537. 2725. <
3690 2 -4 54 3 9036. 3176. 3178. <
3690 1 4 54 -3 9036. 3176. 3178. <
3691 2 2 54 -3 271. -454. 907. <
3691 1 -2 54 3 271. -454. 907. <
3692 2 -2 54 3 270. -2722. 2268. <
3692 1 2 54 -3 270. -2722. 2268. <
3693 2 0 54 -3 35170. 32210. 1380. o
3693 1 0 54 3 35170. 32210. 1380. o
3694 2 0 54 3 35170. 42190. 1773. o
3694 1 0 54 -3 35170. 42190. 1773. o
3695 2 -2 54 -3 270. 454. 1361. <
3695 1 2 54 3 270. 454. 1361. <
3696 2 2 54 3 271. -1361. 1361. <
3696 1 -2 54 -3 271. -1361. 1361. <
3697 2 -4 54 -3 9036. 4083. 2272. <
3697 1 4 54 3 9036. 4083. 2272. <
3698 2 -6 54 -3 380. 2268. 1814. <
3698 1 6 54 3 380. 2268. 1814. <
3699 2 -8 54 -3 245. -907. 1361. <
3699 1 8 54 3 245. -907. 1361. <
3700 3 -3 -55 7 246. 4083. 2267. <
3700 2 7 55 -3 246. 4083. 2267. <
3700 1 -7 55 3 246. 4083. 2267. <
3701 3 3 -55 -7 242. -907. 2268. <
3701 2 -7 55 3 242. -907. 2268. <
3701 1 7 55 -3 242. -907. 2268. <
3702 3 -3 -55 5 668. -454. 1815. <
3702 2 5 55 -3 668. -454. 1815. <
3702 1 -5 55 3 668. -454. 1815. <
3703 3 3 -55 -5 668. 4083. 3175. <
3703 2 -5 55 3 668. 4083. 3175. <
3703 1 5 55 -3 668. 4083. 3175. <
3704 3 -3 -55 3 1872. 3176. 906. o
3704 2 3 55 -3 1872. 3176. 906. o
3704 1 -3 55 3 1872. 3176. 906. o
3705 3 3 -55 -3 1865. 4083. 2721. <
3705 2 -3 55 3 1865. 4083. 2721. <
3705 1 3 55 -3 1865. 4083. 2721. <
3706 3 -3 -55 1 2787. 907. 1362. <
3706 2 1 55 -3 2787. 907. 1362. <
3706 1 -1 55 3 2787. 907. 1362. <
3707 3 3 -55 -1 2809. 907. 1815. <
3707 2 -1 55 3 2809. 907. 1815. <
3707 1 1 55 -3 2809. 907. 1815. <
3708 3 -3 -55 -1 2801. 3176. 907. o
3708 2 -1 55 -3 2801. 3176. 907. o
3708 1 1 55 3 2801. 3176. 907. o
3709 3 3 -55 1 2795. 3629. 1360. o
3709 2 1 55 3 2795. 3629. 1360. o
3709 1 -1 55 -3 2795. 3629. 1360. o
3710 3 -3 -55 -3 1868. 2722. 1814. <
3710 2 -3 55 -3 1868. 2722. 1814. <
3710 1 3 55 3 1868. 2722. 1814. <
3711 3 3 -55 3 1869. 2722. 1361. <
3711 2 3 55 3 1869. 2722. 1361. <
3711 1 -3 55 -3 1869. 2722. 1361. <
3712 3 -3 -55 -5 667. 4990. 2266. o
3712 2 -5 55 -3 667. 4990. 2266. o
3712 1 5 55 3 667. 4990. 2266. o
3713 3 3 -55 5 669. 907. 1361. <
3713 2 5 55 3 669. 907. 1361. <
3713 1 -5 55 -3 669. 907. 1361. <
3714 3 -3 -55 -7 246. 0. 1815. <
3714 2 -7 55 -3 246. 0. 1815. <
3714 1 7 55 3 246. 0. 1815. <
3715 2 6 56 -3 334. 0. 1815. <
3715 1 -6 56 3 334. 0. 1815. <
3716 2 -6 56 3 335. -1815. 2722. <
3716 1 6 56 -3 335. -1815. 2722. <
3717 2 4 56 -3 9146. 6805. 2270. o
3717 1 -4 56 3 9146. 6805. 2270. o
3718 2 -4 56 3 9135. 9073. 3629. o
3718 1 4 56 -3 9135. 9073. 3629. o
3719 2 2 56 -3 1873. 1815. 1361. <
3719 1 -2 56 3 1873. 1815. 1361. <
3720 2 -2 56 3 1872. -907. 2268. <
3720 1 2 56 -3 1872. -907. 2268. <
3721 2 0 56 -3 49105. 52624. 1788. o
3721 1 0 56 3 49105. 52624. 1788. o
3722 2 0 56 3 49105. 43097. 2300. o
3722 1 0 56 -3 49105. 43097. 2300. o
3723 2 -2 56 -3 1872. 907. 1815. <
3723 1 2 56 3 1872. 907. 1815. <
3724 2 2 56 3 1873. 454. 1361. <
3724 1 -2 56 -3 1873. 454. 1361. <
3725 2 -4 56 -3 9135. 8619. 2722. o
3725 1 4 56 3 9135. 8619. 2722. o
3726 2 -6 56 -3 335. 2722. 2268. <
3726 1 6 56 3 335. 2722. 2268. <
3727 3 -3 -57 7 679. -454. 2268. <
3727 2 7 57 -3 679. -454. 2268. <
3727 1 -7 57 3 679. -454. 2268. <
3728 3 3 -57 -7 676. -2722. 2268. <
3728 2 -7 57 3 676. -2722. 2268. <
3728 1 7 57 -3 676. -2722. 2268. <
3729 3 -3 -57 5 1936. 454. 1815. <
3729 2 5 57 -3 1936. 454. 1815. <
3729 1 -5 57 3 1936. 454. 1815. <
3730 3 3 -57 -5 1933. 4083. 3629. <
3730 2 -5 57 3 1933. 4083. 3629. <
3730 1 5 57 -3 1933. 4083. 3629. <
3731 3 -3 -57 3 5041. 6351. 1359. o
3731 2 3 57 -3 5041. 6351. 1359. o
3731 1 -3 57 3 5041. 6351. 1359. o
3732 3 3 -57 -3 5059. 6351. 2721. o
3732 2 -3 57 3 5059. 6351. 2721. o
3732 1 3 57 -3 5059. 6351. 2721. o
3733 3 -3 -57 1 8050. 9073. 905. o
3733 2 1 57 -3 8050. 9073. 905. o
3733 1 -1 57 3 8050. 9073. 905. o
3734 3 3 -57 -1 8073. 9073. 1813. o
3734 2 -1 57 3 8073. 9073. 1813. o
3734 1 1 57 -3 8073. 9073. 1813. o
3735 3 -3 -57 -1 8050. 6351. 1363. o
3735 2 -1 57 -3 8050. 6351. 1363. o
3735 1 1 57 3 8050. 6351. 1363. o
3736 3 3 -57 1 8072. 8619. 1360. o
3736 2 1 57 3 8072. 8619. 1360. o
3736 1 -1 57 -3 8072. 8619. 1360. o
3737 3 -3 -57 -3 5051. 1815. 1816. <
3737 2 -3 57 -3 5051. 1815. 1816. <
3737 1 3 57 3 5051. 1815. 1816. <
3738 3 3 -57 3 5050. 8619. 1356. o
3738 2 3 57 3 5050. 8619. 1356. o
3738 1 -3 57 -3 5050. 8619. 1356. o
3739 3 -3 -57 -5 1939. 1815. 1815. <
3739 2 -5 57 -3 1939. 1815. 1815. <
3739 1 5 57 3 1939. 1815. 1815. <
3740 3 3 -57 5 1930. 3176. 1360. o
3740 2 5 57 3 1930. 3176. 1360. o
3740 1 -5 57 -3 1930. 3176. 1360. o
3741 3 -3 -57 -7 678. 3629. 1813. <
3741 2 -7 57 -3 678. 3629. 1813. <
3741 1 7 57 3 678. 3629. 1813. <
3742 2 6 58 -3 92. 0. 1361. <
3742 1 -6 58 3 92. 0. 1361. <
3743 2 -6 58 3 92. 3629. 2721. <
3743 1 6 58 -3 92. 3629. 2721. <
3744 2 4 58 -3 866. 4537. 1359. o
3744 1 -4 58 3 866. 4537. 1359. o
3745 2 -4 58 3 865. -1361. 4083. <
3745 1 4 58 -3 865. -1361. 4083. <
3746 2 2 58 -3 46. 454. 1361. <
3746 1 -2 58 3 46. 454. 1361. <
3747 2 -2 58 3 46. 1361. 2268. <
3747 1 2 58 -3 46. 1361. 2268. <
3748 2 0 58 -3 3852. 2722. 908. o
3748 1 0 58 3 3852. 2722. 908. o
3749 2 0 58 3 3852. 4083. 1814. o
3749 1 0 58 -3 3852. 4083. 1814. o
3750 2 -2 58 -3 46. -907. 1361. <
3750 1 2 58 3 46. -907. 1361. <
3751 2 2 58 3 46. 0. 1361. <
3751 1 -2 58 -3 46. 0. 1361. <
3752 2 -4 58 -3 865. 454. 2722. <
3752 1 4 58 3 865. 454. 2722. <
3753 2 4 58 3 866. 1815. 1361. <
3753 1 -4 58 -3 866. 1815. 1361. <
3754 2 -6 58 -3 92. 2722. 1814. <
3754 1 6 58 3 92. 2722. 1814. <
3755 3 -3 -59 7 1449. -454. 1815. <
3755 2 7 59 -3 1449. -454. 1815. <
3755 1 -7 59 3 1449. -454. 1815. <
3756 3 3 -59 -7 1431. 907. 2722. <
3756 2 -7 59 3 1431. 907. 2722. <
3756 1 7 59 -3 1431. 907. 2722. <
3757 3 -3 -59 5 4312. 4537. 2268. <
3757 2 5 59 -3 4312. 4537. 2268. <
3757 1 -5 59 3 4312. 4537. 2268. <
3758 3 3 -59 -5 4290. 9073. 4081. o
3758 2 -5 59 3 4290. 9073. 4081. o
3758 1 5 59 -3 4290. 9073. 4081. o
3759 3 -3 -59 3 8191. 9980. 1358. o
3759 2 3 59 -3 8191. 9980. 1358. o
3759 1 -3 59 3 8191. 9980. 1358. o
3760 3 3 -59 -3 8184. 4537. 3631. <
3760 2 -3 59 3 8184. 4537. 3631. <
3760 1 3 59 -3 8184. 4537. 3631. <
3761 3 -3 -59 1 13178. 14063. 1359. o
3761 2 1 59 -3 13178. 14063. 1359. o
3761 1 -1 59 3 13178. 14063. 1359. o
3762 3 3 -59 -1 13217. 17693. 2260. o
3762 2 -1 59 3 13217. 17693. 2260. o
3762 1 1 59 -3 13217. 17693. 2260. o
3763 3 -3 -59 -1 13179. 11341. 1365. o
3763 2 -1 59 -3 13179. 11341. 1365. o
3763 1 1 59 3 13179. 11341. 1365. o
3764 3 3 -59 1 13217. 16332. 1808. o
3764 2 1 59 3 13217. 16332. 1808. o
3764 1 -1 59 -3 13217. 16332. 1808. o
3765 3 -3 -59 -3 8187. 4083. 2271. <
3765 2 -3 59 -3 8187. 4083. 2271. <
3765 1 3 59 3 8187. 4083. 2271. <
3766 3 3 -59 3 8188. 9073. 1359. o
3766 2 3 59 3 8188. 9073. 1359. o
3766 1 -3 59 -3 8188. 9073. 1359. o
3767 3 -3 -59 -5 4311. 3629. 2269. <
3767 2 -5 59 -3 4311. 3629. 2269. <
3767 1 5 59 3 4311. 3629. 2269. <
3768 3 3 -59 5 4291. 6805. 1812. o
3768 2 5 59 3 4291. 6805. 1812. o
3768 1 -5 59 -3 4291. 6805. 1812. o
3769 3 -3 -59 -7 1447. -907. 1815. <
3769 2 -7 59 -3 1447. -907. 1815. <
3769 1 7 59 3 1447. -907. 1815. <
3770 2 6 60 -3 11. 1361. 1361. <
3770 1 -6 60 3 11. 1361. 1361. <
3771 2 -6 60 3 11. 2722. 2721. <
3771 1 6 60 -3 11. 2722. 2721. <
3772 2 4 60 -3 50. 1815. 1814. <
3772 1 -4 60 3 50. 1815. 1814. <
3773 2 -4 60 3 50. 7258. 4081. <
3773 1 4 60 -3 50. 7258. 4081. <
3774 2 2 60 -3 232. 2722. 1360. <
3774 1 -2 60 3 232. 2722. 1360. <
3775 2 -2 60 3 231. -2722. 2721. <
3775 1 2 60 -3 231. -2722. 2721. <
3776 2 0 60 -3 814. 907. 1361. <
3776 1 0 60 3 814. 907. 1361. <
3777 2 0 60 3 814. 1815. 1814. <
3777 1 0 60 -3 814. 1815. 1814. <
3778 2 -2 60 -3 231. 907. 1361. <
3778 1 2 60 3 231. 907. 1361. <
3779 2 2 60 3 232. 454. 1361. <
3779 1 -2 60 -3 232. 454. 1361. <
3780 2 -4 60 -3 50. 1361. 1814. <
3780 1 4 60 3 50. 1361. 1814. <
3781 2 4 60 3 50. -454. 1361. <
3781 1 -4 60 -3 50. -454. 1361. <
3782 2 -6 60 -3 11. 0. 1361. <
3782 1 6 60 3 11. 0. 1361. <
3783 3 -3 -61 7 5537. 2722. 1816. <
3783 2 7 61 -3 5537. 2722. 1816. <
3783 1 -7 61 3 5537. 2722. 1816. <
3784 3 3 -61 -7 5535. 6351. 2721. o
3784 2 -7 61 3 5535. 6351. 2721. o
3784 1 7 61 -3 5535. 6351. 2721. o
3785 3 -3 -61 5 15022. 27673. 2233. o
3785 2 5 61 -3 15022. 27673. 2233. o
3785 1 -5 61 3 15022. 27673. 2233. o
3786 3 3 -61 -5 14916. 23590. 4071. o
3786 2 -5 61 3 14916. 23590. 4071. o
3786 1 5 61 -3 14916. 23590. 4071. o
3787 3 -3 -61 3 21951. 26766. 1337. o
3787 2 3 61 -3 21951. 26766. 1337. o
3787 1 -3 61 3 21951. 26766. 1337. o
3788 3 3 -61 -3 21785. 26766. 3620. o
3788 2 -3 61 3 21785. 26766. 3620. o
3788 1 3 61 -3 21785. 26766. 3620. o
3789 3 -3 -61 1 23844. 29488. 1330. o
3789 2 1 61 -3 23844. 29488. 1330. o
3789 1 -1 61 3 23844. 29488. 1330. o
3790 3 3 -61 -1 23590. 29941. 2247. o
3790 2 -1 61 3 23590. 29941. 2247. o
3790 1 1 61 -3 23590. 29941. 2247. o
3791 3 -3 -61 -1 23749. 19961. 1377. o
3791 2 -1 61 -3 23749. 19961. 1377. o
3791 1 1 61 3 23749. 19961. 1377. o
3792 3 3 -61 1 23685. 31302. 1782. o
3792 2 1 61 3 23685. 31302. 1782. o
3792 1 -1 61 -3 23685. 31302. 1782. o
3793 3 -3 -61 -3 21863. 13156. 2285. o
3793 2 -3 61 -3 21863. 13156. 2285. o
3793 1 3 61 3 21863. 13156. 2285. o
3794 3 3 -61 3 21873. 35839. 1749. o
3794 2 3 61 3 21873. 35839. 1749. o
3794 1 -3 61 -3 21873. 35839. 1749. o
3795 3 -3 -61 -5 14966. 18600. 2261. o
3795 2 -5 61 -3 14966. 18600. 2261. o
3795 1 5 61 3 14966. 18600. 2261. o
3796 3 3 -61 5 14973. 23590. 2247. o
3796 2 5 61 3 14973. 23590. 2247. o
3796 1 -5 61 -3 14973. 23590. 2247. o
3797 3 -3 -61 -7 5532. 2268. 1816. <
3797 2 -7 61 -3 5532. 2268. 1816. <
3797 1 7 61 3 5532. 2268. 1816. <
3798 2 6 62 -3 8. 1361. 1361. <
3798 1 -6 62 3 8. 1361. 1361. <
3799 2 -6 62 3 8. -454. 2722. <
3799 1 6 62 -3 8. -454. 2722. <
3800 2 4 62 -3 4. 4083. 1813. o
3800 1 -4 62 3 4. 4083. 1813. o
3801 2 -4 62 3 4. 4990. 3174. <
3801 1 4 62 -3 4. 4990. 3174. <
3802 2 2 62 -3 400. 454. 1361. <
3802 1 -2 62 3 400. 454. 1361. <
3803 2 -2 62 3 401. 1815. 2722. <
3803 1 2 62 -3 401. 1815. 2722. <
3804 2 0 62 -3 272. -907. 1361. <
3804 1 0 62 3 272. -907. 1361. <
3805 2 0 62 3 272. -454. 1815. <
3805 1 0 62 -3 272. -454. 1815. <
3806 2 -2 62 -3 401. 2268. 1360. <
3806 1 2 62 3 401. 2268. 1360. <
3807 2 2 62 3 400. 0. 1361. <
3807 1 -2 62 -3 400. 0. 1361. <
3808 2 -4 62 -3 4. 3176. 1360. o
3808 1 4 62 3 4. 3176. 1360. o
3809 2 4 62 3 4. 0. 1361. <
3809 1 -4 62 -3 4. 0. 1361. <
3810 2 -6 62 -3 8. 907. 1361. <
3810 1 6 62 3 8. 907. 1361. <
3811 3 -3 -63 7 447. -907. 1815. <
3811 2 7 63 -3 447. -907. 1815. <
3811 1 -7 63 3 447. -907. 1815. <
3812 3 3 -63 -7 443. 0. 2722. <
3812 2 -7 63 3 443. 0. 2722. <
3812 1 7 63 -3 443. 0. 2722. <
3813 3 -3 -63 5 874. 907. 1361. <
3813 2 5 63 -3 874. 907. 1361. <
3813 1 -5 63 3 874. 907. 1361. <
3814 3 3 -63 -5 855. 454. 2722. <
3814 2 -5 63 3 855. 454. 2722. <
3814 1 5 63 -3 855. 454. 2722. <
3815 3 -3 -63 3 625. 454. 1815. <
3815 2 3 63 -3 625. 454. 1815. <
3815 1 -3 63 3 625. 454. 1815. <
3816 3 3 -63 -3 583. -907. 2722. <
3816 2 -3 63 3 583. -907. 2722. <
3816 1 3 63 -3 583. -907. 2722. <
3817 3 -3 -63 1 487. 907. 1361. <
3817 2 1 63 -3 487. 907. 1361. <
3817 1 -1 63 3 487. 907. 1361. <
3818 3 3 -63 -1 437. 454. 2268. <
3818 2 -1 63 3 437. 454. 2268. <
3818 1 1 63 -3 437. 454. 2268. <
3819 3 -3 -63 -1 470. -454. 1361. <
3819 2 -1 63 -3 470. -454. 1361. <
3819 1 1 63 3 470. -454. 1361. <
3820 3 3 -63 1 454. -454. 1361. <
3820 2 1 63 3 454. -454. 1361. <
3820 1 -1 63 -3 454. -454. 1361. <
3821 3 -3 -63 -3 602. 4537. 2267. <
3821 2 -3 63 -3 602. 4537. 2267. <
3821 1 3 63 3 602. 4537. 2267. <
3822 3 3 -63 3 605. 0. 1361. <
3822 2 3 63 3 605. 0. 1361. <
3822 1 -3 63 -3 605. 0. 1361. <
3823 3 -3 -63 -5 863. 907. 1815. <
3823 2 -5 63 -3 863. 907. 1815. <
3823 1 5 63 3 863. 907. 1815. <
3824 3 3 -63 5 866. 454. 1815. <
3824 2 5 63 3 866. 454. 1815. <
3824 1 -5 63 -3 866. 454. 1815. <
3825 3 -3 -63 -7 444. 454. 1361. <
3825 2 -7 63 -3 444. 454. 1361. <
3825 1 7 63 3 444. 454. 1361. <
3826 2 6 64 -3 29. 0. 1361. <
3826 1 -6 64 3 29. 0. 1361. <
3827 2 -6 64 3 29. -2268. 2268. <
3827 1 6 64 -3 29. -2268. 2268. <
3828 2 4 64 -3 4. 4990. 2266. o
3828 1 -4 64 3 4. 4990. 2266. o
3829 2 -4 64 3 4. -2722. 2721. <
3829 1 4 64 -3 4. -2722. 2721. <
3830 2 2 64 -3 1006. 454. 1361. <
3830 1 -2 64 3 1006. 454. 1361. <
3831 2 -2 64 3 1007. -907. 2268. <
3831 1 2 64 -3 1007. -907. 2268. <
3832 2 0 64 -3 104. 1361. 1361. <
3832 1 0 64 3 104. 1361. 1361. <
3833 2 0 64 3 104. -454. 1815. <
3833 1 0 64 -3 104. -454. 1815. <
3834 2 -2 64 -3 1008. 1361. 1815. <
3834 1 2 64 3 1008. 1361. 1815. <
3835 2 2 64 3 1006. 1361. 1361. <
3835 1 -2 64 -3 1006. 1361. 1361. <
3836 2 -4 64 -3 4. 1815. 1361. <
3836 1 4 64 3 4. 1815. 1361. <
3837 2 4 64 3 4. 0. 1361. <
3837 1 -4 64 -3 4. 0. 1361. <
3838 2 -6 64 -3 29. 0. 1361. <
3838 1 6 64 3 29. 0. 1361. <
3839 3 -3 -65 5 38. 454. 1361. <
3839 2 5 65 -3 38. 454. 1361. <
3839 1 -5 65 3 38. 454. 1361. <
3840 3 3 -65 -5 38. 4990. 2266. o
3840 2 -5 65 3 38. 4990. 2266. o
3840 1 5 65 -3 38. 4990. 2266. o
3841 3 -3 -65 3 60. -907. 1815. <
3841 2 3 65 -3 60. -907. 1815. <
3841 1 -3 65 3 60. -907. 1815. <
3842 3 3 -65 -3 58. 454. 2268. <
3842 2 -3 65 3 58. 454. 2268. <
3842 1 3 65 -3 58. 454. 2268. <
3843 3 -3 -65 1 58. 1815. 1361. <
3843 2 1 65 -3 58. 1815. 1361. <
3843 1 -1 65 3 58. 1815. 1361. <
3844 3 3 -65 -1 51. 1815. 2268. <
3844 2 -1 65 3 51. 1815. 2268. <
3844 1 1 65 -3 51. 1815. 2268. <
3845 3 -3 -65 -1 56. 907. 1361. <
3845 2 -1 65 -3 56. 907. 1361. <
3845 1 1 65 3 56. 907. 1361. <
3846 3 3 -65 1 54. 454. 1815. <
3846 2 1 65 3 54. 454. 1815. <
3846 1 -1 65 -3 54. 454. 1815. <
3847 3 -3 -65 -3 59. 454. 1815. <
3847 2 -3 65 -3 59. 454. 1815. <
3847 1 3 65 3 59. 454. 1815. <
3848 3 3 -65 3 59. 454. 1361. <
3848 2 3 65 3 59. 454. 1361. <
3848 1 -3 65 -3 59. 454. 1361. <
3849 3 -3 -65 -5 38. 907. 1361. <
3849 2 -5 65 -3 38. 907. 1361. <
3849 1 5 65 3 38. 907. 1361. <
3850 3 3 -65 5 38. 454. 1361. <
3850 2 5 65 3 38. 454. 1361. <
3850 1 -5 65 -3 38. 454. 1361. <
3851 2 6 66 -3 292. -1361. 1361. <
3851 1 -6 66 3 292. -1361. 1361. <
3852 2 -6 66 3 291. 3629. 1813. <
3852 1 6 66 -3 291. 3629. 1813. <
3853 2 4 66 -3 11. 0. 1815. <
3853 1 -4 66 3 11. 0. 1815. <
3854 2 -4 66 3 11. -1361. 2268. <
3854 1 4 66 -3 11. -1361. 2268. <
3855 2 2 66 -3 3534. 1361. 1815. <
3855 1 -2 66 3 3534. 1361. 1815. <
3856 2 -2 66 3 3530. 4083. 1814. o
3856 1 2 66 -3 3530. 4083. 1814. o
3857 2 0 66 -3 75. 1361. 1814. <
3857 1 0 66 3 75. 1361. 1814. <
3858 2 0 66 3 75. -1815. 1814. <
3858 1 0 66 -3 75. -1815. 1814. <
3859 2 -2 66 -3 3530. 1815. 1815. <
3859 1 2 66 3 3530. 1815. 1815. <
3860 2 2 66 3 3534. 3629. 1361. o
3860 1 -2 66 -3 3534. 3629. 1361. o
3861 2 -4 66 -3 11. 907. 1361. <
3861 1 4 66 3 11. 907. 1361. <
3862 2 4 66 3 11. -454. 1361. <
3862 1 -4 66 -3 11. -454. 1361. <
3863 2 -6 66 -3 291. 2722. 1360. <
3863 1 6 66 3 291. 2722. 1360. <
3864 3 -3 -67 5 234. 0. 907. <
3864 2 5 67 -3 234. 0. 907. <
3864 1 -5 67 3 234. 0. 907. <
3865 3 3 -67 -5 239. 3629. 2267. <
3865 2 -5 67 3 239. 3629. 2267. <
3865 1 5 67 -3 239. 3629. 2267. <
3866 3 -3 -67 3 637. 1815. 1814. <
3866 2 3 67 -3 637. 1815. 1814. <
3866 1 -3 67 3 637. 1815. 1814. <
3867 3 3 -67 -3 635. -2268. 2268. <
3867 2 -3 67 3 635. -2268. 2268. <
3867 1 3 67 -3 635. -2268. 2268. <
3868 3 -3 -67 1 836. 2722. 1360. <
3868 2 1 67 -3 836. 2722. 1360. <
3868 1 -1 67 3 836. 2722. 1360. <
3869 3 3 -67 -1 839. 1815. 1814. <
3869 2 -1 67 3 839. 1815. 1814. <
3869 1 1 67 -3 839. 1815. 1814. <
3870 3 -3 -67 -1 840. 3629. 1814. <
3870 2 -1 67 -3 840. 3629. 1814. <
3870 1 1 67 3 840. 3629. 1814. <
3871 3 3 -67 1 835. 1361. 1361. <
3871 2 1 67 3 835. 1361. 1361. <
3871 1 -1 67 -3 835. 1361. 1361. <
3872 3 -3 -67 -3 636. 0. 1361. <
3872 2 -3 67 -3 636. 0. 1361. <
3872 1 3 67 3 636. 0. 1361. <
3873 3 3 -67 3 636. 2268. 1360. <
3873 2 3 67 3 636. 2268. 1360. <
3873 1 -3 67 -3 636. 2268. 1360. <
3874 3 -3 -67 -5 235. 454. 1361. <
3874 2 -5 67 -3 235. 454. 1361. <
3874 1 5 67 3 235. 454. 1361. <
3875 3 3 -67 5 238. 454. 907. <
3875 2 5 67 3 238. 454. 907. <
3875 1 -5 67 -3 238. 454. 907. <
3876 2 6 68 -3 355. 1815. 1361. <
3876 1 -6 68 3 355. 1815. 1361. <
3877 2 -6 68 3 356. -1361. 1814. <
3877 1 6 68 -3 356. -1361. 1814. <
3878 2 4 68 -3 230. -454. 1361. <
3878 1 -4 68 3 230. -454. 1361. <
3879 2 -4 68 3 231. 1815. 1814. <
3879 1 4 68 -3 231. 1815. 1814. <
3880 2 2 68 -3 9762. 10888. 1813. o
3880 1 -2 68 3 9762. 10888. 1813. o
3881 2 -2 68 3 9767. 9980. 1814. o
3881 1 2 68 -3 9767. 9980. 1814. o
3882 2 0 68 -3 4102. 4083. 1815. o
3882 1 0 68 3 4102. 4083. 1815. o
3883 2 0 68 3 4102. 1815. 2269. <
3883 1 0 68 -3 4102. 1815. 2269. <
3884 2 -2 68 -3 9767. 9527. 1815. o
3884 1 2 68 3 9767. 9527. 1815. o
3885 2 2 68 3 9762. 13610. 1352. o
3885 1 -2 68 -3 9762. 13610. 1352. o
3886 2 -4 68 -3 231. 0. 907. <
3886 1 4 68 3 231. 0. 907. <
3887 2 4 68 3 230. 907. 1361. <
3887 1 -4 68 -3 230. 907. 1361. <
3888 2 -6 68 -3 356. 454. 907. <
3888 1 6 68 3 356. 454. 907. <
3889 3 -3 -69 5 771. 0. 907. <
3889 2 5 69 -3 771. 0. 907. <
3889 1 -5 69 3 771. 0. 907. <
3890 3 3 -69 -5 771. -907. 1361. <
3890 2 -5 69 3 771. -907. 1361. <
3890 1 5 69 -3 771. -907. 1361. <
3891 3 -3 -69 3 1850. 454. 1815. <
3891 2 3 69 -3 1850. 454. 1815. <
3891 1 -3 69 3 1850. 454. 1815. <
3892 3 3 -69 -3 1847. 2268. 1814. <
3892 2 -3 69 3 1847. 2268. 1814. <
3892 1 3 69 -3 1847. 2268. 1814. <
3893 3 -3 -69 1 2638. 1361. 1815. <
3893 2 1 69 -3 2638. 1361. 1815. <
3893 1 -1 69 3 2638. 1361. 1815. <
3894 3 3 -69 -1 2626. 0. 1815. <
3894 2 -1 69 3 2626. 0. 1815. <
3894 1 1 69 -3 2626. 0. 1815. <
3895 3 -3 -69 -1 2634. -454. 1815. <
3895 2 -1 69 -3 2634. -454. 1815. <
3895 1 1 69 3 2634. -454. 1815. <
3896 3 3 -69 1 2629. 4537. 1360. o
3896 2 1 69 3 2629. 4537. 1360. o
3896 1 -1 69 -3 2629. 4537. 1360. o
3897 3 -3 -69 -3 1849. 0. 1361. <
3897 2 -3 69 -3 1849. 0. 1361. <
3897 1 3 69 3 1849. 0. 1361. <
3898 3 3 -69 3 1849. 1361. 1361. <
3898 2 3 69 3 1849. 1361. 1361. <
3898 1 -3 69 -3 1849. 1361. 1361. <
3899 3 -3 -69 -5 770. 454. 1361. <
3899 2 -5 69 -3 770. 454. 1361. <
3899 1 5 69 3 770. 454. 1361. <
3900 3 3 -69 5 772. 907. 907. <
3900 2 5 69 3 772. 907. 907. <
3900 1 -5 69 -3 772. 907. 907. <
3901 2 6 70 -3 38. -907. 1361. <
3901 1 -6 70 3 38. -907. 1361. <
3902 2 -6 70 3 39. 0. 1815. <
3902 1 6 70 -3 39. 0. 1815. <
3903 2 4 70 -3 12. 1815. 1361. <
3903 1 -4 70 3 12. 1815. 1361. <
3904 2 -4 70 3 12. 907. 1361. <
3904 1 4 70 -3 12. 907. 1361. <
3905 2 2 70 -3 335. 907. 1815. <
3905 1 -2 70 3 335. 907. 1815. <
3906 2 -2 70 3 335. 454. 1815. <
3906 1 2 70 -3 335. 454. 1815. <
3907 2 0 70 -3 117. -907. 1815. <
3907 1 0 70 3 117. -907. 1815. <
3908 2 0 70 3 117. -907. 1815. <
3908 1 0 70 -3 117. -907. 1815. <
3909 2 -2 70 -3 335. 2268. 1360. <
3909 1 2 70 3 335. 2268. 1360. <
3910 2 2 70 3 335. 0. 1361. <
3910 1 -2 70 -3 335. 0. 1361. <
3911 2 -4 70 -3 12. 2268. 906. o
3911 1 4 70 3 12. 2268. 906. o
3912 2 4 70 3 12. 454. 1361. <
3912 1 -4 70 -3 12. 454. 1361. <
3913 2 -6 70 -3 39. -907. 907. <
3913 1 6 70 3 39. -907. 907. <
3914 3 -3 -71 5 1305. 454. 907. <
3914 2 5 71 -3 1305. 454. 907. <
3914 1 -5 71 3 1305. 454. 907. <
3915 3 3 -71 -5 1313. 2268. 1814. <
3915 2 -5 71 3 1313. 2268. 1814. <
3915 1 5 71 -3 1313. 2268. 1814. <
3916 3 -3 -71 3 2324. 3629. 1360. o
3916 2 3 71 -3 2324. 3629. 1360. o
3916 1 -3 71 3 2324. 3629. 1360. o
3917 3 3 -71 -3 2322. 2268. 1815. <
3917 2 -3 71 3 2322. 2268. 1815. <
3917 1 3 71 -3 2322. 2268. 1815. <
3918 3 -3 -71 1 3041. 1361. 1815. <
3918 2 1 71 -3 3041. 1361. 1815. <
3918 1 -1 71 3 3041. 1361. 1815. <
3919 3 3 -71 -1 3029. 907. 1362. <
3919 2 -1 71 3 3029. 907. 1362. <
3919 1 1 71 -3 3029. 907. 1362. <
3920 3 -3 -71 -1 3040. 907. 1815. <
3920 2 -1 71 -3 3040. 907. 1815. <
3920 1 1 71 3 3040. 907. 1815. <
3921 3 3 -71 1 3029. 3176. 1815. <
3921 2 1 71 3 3029. 3176. 1815. <
3921 1 -1 71 -3 3029. 3176. 1815. <
3922 3 -3 -71 -3 2323. 2268. 1361. <
3922 2 -3 71 -3 2323. 2268. 1361. <
3922 1 3 71 3 2323. 2268. 1361. <
3923 3 3 -71 3 2323. 3629. 1360. o
3923 2 3 71 3 2323. 3629. 1360. o
3923 1 -3 71 -3 2323. 3629. 1360. o
3924 3 -3 -71 -5 1306. 907. 1361. <
3924 2 -5 71 -3 1306. 907. 1361. <
3924 1 5 71 3 1306. 907. 1361. <
3925 3 3 -71 5 1311. 1361. 907. <
3925 2 5 71 3 1311. 1361. 907. <
3925 1 -5 71 -3 1311. 1361. 907. <
3926 2 4 72 -3 18. 1361. 1361. <
3926 1 -4 72 3 18. 1361. 1361. <
3927 2 -4 72 3 18. -2268. 1814. <
3927 1 4 72 -3 18. -2268. 1814. <
3928 2 2 72 -3 86. 1361. 1361. <
3928 1 -2 72 3 86. 1361. 1361. <
3929 2 -2 72 3 86. -2268. 1814. <
3929 1 2 72 -3 86. -2268. 1814. <
3930 2 0 72 -3 272. 1361. 1814. <
3930 1 0 72 3 272. 1361. 1814. <
3931 2 0 72 3 272. 454. 1815. <
3931 1 0 72 -3 272. 454. 1815. <
3932 2 -2 72 -3 86. 454. 1361. <
3932 1 2 72 3 86. 454. 1361. <
3933 2 2 72 3 86. 1361. 1361. <
3933 1 -2 72 -3 86. 1361. 1361. <
3934 2 -4 72 -3 18. 1361. 907. <
3934 1 4 72 3 18. 1361. 907. <
3935 2 4 72 3 18. 2268. 1360. <
3935 1 -4 72 -3 18. 2268. 1360. <
3936 3 -3 -73 5 9160. 9527. 1360. o
3936 2 5 73 -3 9160. 9527. 1360. o
3936 1 -5 73 3 9160. 9527. 1360. o
3937 3 3 -73 -5 9189. 5444. 1818. o
3937 2 -5 73 3 9189. 5444. 1818. o
3937 1 5 73 -3 9189. 5444. 1818. o
3938 3 -3 -73 3 26314. 19054. 1391. o
3938 2 3 73 -3 26314. 19054. 1391. o
3938 1 -3 73 3 26314. 19054. 1391. o
3939 3 3 -73 -3 26375. 27673. 2264. o
3939 2 -3 73 3 26375. 27673. 2264. o
3939 1 3 73 -3 26375. 27673. 2264. o
3940 3 -3 -73 1 46085. 51717. 2235. o
3940 2 1 73 -3 46085. 51717. 2235. o
3940 1 -1 73 3 46085. 51717. 2235. o
3941 3 3 -73 -1 46144. 48541. 2711. o
3941 2 -1 73 3 46144. 48541. 2711. o
3941 1 1 73 -3 46144. 48541. 2711. o
3942 3 -3 -73 -1 46105. 29941. 1897. o
3942 2 -1 73 -3 46105. 29941. 1897. o
3942 1 1 73 3 46105. 29941. 1897. o
3943 3 3 -73 1 46124. 59429. 2181. o
3943 2 1 73 3 46124. 59429. 2181. o
3943 1 -1 73 -3 46124. 59429. 2181. o
3944 3 -3 -73 -3 26346. 22683. 1378. o
3944 2 -3 73 -3 26346. 22683. 1378. o
3944 1 3 73 3 26346. 22683. 1378. o
3945 3 3 -73 3 26343. 33570. 1781. o
3945 2 3 73 3 26343. 33570. 1781. o
3945 1 -3 73 -3 26343. 33570. 1781. o
3946 3 -3 -73 -5 9174. 2722. 1367. <
3946 2 -5 73 -3 9174. 2722. 1367. <
3946 1 5 73 3 9174. 2722. 1367. <
3947 3 3 -73 5 9174. 9980. 1813. o
3947 2 5 73 3 9174. 9980. 1813. o
3947 1 -5 73 -3 9174. 9980. 1813. o
3948 2 4 74 -3 19. 907. 907. <
3948 1 -4 74 3 19. 907. 907. <
3949 2 -4 74 3 19. 1361. 1814. <
3949 1 4 74 -3 19. 1361. 1814. <
3950 2 2 74 -3 24. 1815. 1361. <
3950 1 -2 74 3 24. 1815. 1361. <
3951 2 -2 74 3 24. 4083. 1813. o
3951 1 2 74 -3 24. 4083. 1813. o
3952 2 0 74 -3 114. 1361. 1361. <
3952 1 0 74 3 114. 1361. 1361. <
3953 2 0 74 3 114. -907. 1361. <
3953 1 0 74 -3 114. -907. 1361. <
3954 2 -2 74 -3 24. 907. 1361. <
3954 1 2 74 3 24. 907. 1361. <
3955 2 2 74 3 24. -454. 1361. <
3955 1 -2 74 -3 24. -454. 1361. <
3956 2 -4 74 -3 19. 1361. 907. <
3956 1 4 74 3 19. 1361. 907. <
3957 2 4 74 3 19. 1361. 1361. <
3957 1 -4 74 -3 19. 1361. 1361. <
3958 3 -3 -75 5 693. -454. 907. <
3958 2 5 75 -3 693. -454. 907. <
3958 1 -5 75 3 693. -454. 907. <
3959 3 3 -75 -5 702. -1361. 1814. <
3959 2 -5 75 3 702. -1361. 1814. <
3959 1 5 75 -3 702. -1361. 1814. <
3960 3 -3 -75 3 1729. 1361. 1361. <
3960 2 3 75 -3 1729. 1361. 1361. <
3960 1 -3 75 3 1729. 1361. 1361. <
3961 3 3 -75 -3 1754. 0. 1361. <
3961 2 -3 75 3 1754. 0. 1361. <
3961 1 3 75 -3 1754. 0. 1361. <
3962 3 -3 -75 1 3266. 3176. 1361. o
3962 2 1 75 -3 3266. 3176. 1361. o
3962 1 -1 75 3 3266. 3176. 1361. o
3963 3 3 -75 -1 3293. 1815. 1815. <
3963 2 -1 75 3 3293. 1815. 1815. <
3963 1 1 75 -3 3293. 1815. 1815. <
3964 3 -3 -75 -1 3273. 2268. 1361. <
3964 2 -1 75 -3 3273. 2268. 1361. <
3964 1 1 75 3 3273. 2268. 1361. <
3965 3 3 -75 1 3286. 3176. 1361. o
3965 2 1 75 3 3286. 3176. 1361. o
3965 1 -1 75 -3 3286. 3176. 1361. o
3966 3 -3 -75 -3 1742. 454. 908. <
3966 2 -3 75 -3 1742. 454. 908. <
3966 1 3 75 3 1742. 454. 908. <
3967 3 3 -75 3 1741. 2722. 1361. <
3967 2 3 75 3 1741. 2722. 1361. <
3967 1 -3 75 -3 1741. 2722. 1361. <
3968 3 -3 -75 -5 699. 1815. 907. <
3968 2 -5 75 -3 699. 1815. 907. <
3968 1 5 75 3 699. 1815. 907. <
3969 3 3 -75 5 696. 907. 1361. <
3969 2 5 75 3 696. 907. 1361. <
3969 1 -5 75 -3 696. 907. 1361. <
3970 2 4 76 -3 32. 454. 907. <
3970 1 -4 76 3 32. 454. 907. <
3971 2 -4 76 3 32. 454. 1361. <
3971 1 4 76 -3 32. 454. 1361. <
3972 2 2 76 -3 8. 454. 907. <
3972 1 -2 76 3 8. 454. 907. <
3973 2 -2 76 3 8. -2268. 1360. <
3973 1 2 76 -3 8. -2268. 1360. <
3974 2 0 76 -3 134. 454. 1361. <
3974 1 0 76 3 134. 454. 1361. <
3975 2 0 76 3 134. 2722. 1360. <
3975 1 0 76 -3 134. 2722. 1360. <
3976 2 -2 76 -3 8. 0. 907. <
3976 1 2 76 3 8. 0. 907. <
3977 2 2 76 3 8. 1361. 1814. <
3977 1 -2 76 -3 8. 1361. 1814. <
3978 2 -4 76 -3 32. 0. 907. <
3978 1 4 76 3 32. 0. 907. <
3979 2 4 76 3 32. 3176. 1814. <
3979 1 -4 76 -3 32. 3176. 1814. <
3980 3 -3 -77 5 62. 0. 907. <
3980 2 5 77 -3 62. 0. 907. <
3980 1 -5 77 3 62. 0. 907. <
3981 3 3 -77 -5 62. 3629. 1359. o
3981 2 -5 77 3 62. 3629. 1359. o
3981 1 5 77 -3 62. 3629. 1359. o
3982 3 -3 -77 3 176. 454. 907. <
3982 2 3 77 -3 176. 454. 907. <
3982 1 -3 77 3 176. 454. 907. <
3983 3 3 -77 -3 177. -454. 1361. <
3983 2 -3 77 3 177. -454. 1361. <
3983 1 3 77 -3 177. -454. 1361. <
3984 3 -3 -77 1 264. 1361. 1361. <
3984 2 1 77 -3 264. 1361. 1361. <
3984 1 -1 77 3 264. 1361. 1361. <
3985 3 3 -77 -1 266. 0. 1361. <
3985 2 -1 77 3 266. 0. 1361. <
3985 1 1 77 -3 266. 0. 1361. <
3986 3 -3 -77 -1 264. 907. 907. <
3986 2 -1 77 -3 264. 907. 907. <
3986 1 1 77 3 264. 907. 907. <
3987 3 3 -77 1 266. 1361. 1814. <
3987 2 1 77 3 266. 1361. 1814. <
3987 1 -1 77 -3 266. 1361. 1814. <
3988 3 -3 -77 -3 176. 454. 907. <
3988 2 -3 77 -3 176. 454. 907. <
3988 1 3 77 3 176. 454. 907. <
3989 3 3 -77 3 176. 454. 1361. <
3989 2 3 77 3 176. 454. 1361. <
3989 1 -3 77 -3 176. 454. 1361. <
3990 3 -3 -77 -5 62. -907. 907. <
3990 2 -5 77 -3 62. -907. 907. <
3990 1 5 77 3 62. -907. 907. <
3991 3 3 -77 5 62. 907. 907. <
3991 2 5 77 3 62. 907. 907. <
3991 1 -5 77 -3 62. 907. 907. <
3992 2 4 78 -3 131. 0. 907. <
3992 1 -4 78 3 131. 0. 907. <
3993 2 -4 78 3 131. 1361. 1361. <
3993 1 4 78 -3 131. 1361. 1361. <
3994 2 2 78 -3 49. 1815. 1361. <
3994 1 -2 78 3 49. 1815. 1361. <
3995 2 -2 78 3 49. 1815. 1361. <
3995 1 2 78 -3 49. 1815. 1361. <
3996 2 0 78 -3 196. 454. 907. <
3996 1 0 78 3 196. 454. 907. <
3997 2 0 78 3 196. 454. 1361. <
3997 1 0 78 -3 196. 454. 1361. <
3998 2 -2 78 -3 49. 907. 907. <
3998 1 2 78 3 49. 907. 907. <
3999 2 2 78 3 49. 0. 1361. <
3999 1 -2 78 -3 49. 0. 1361. <
4000 2 -4 78 -3 131. -1815. 907. <
4000 1 4 78 3 131. -1815. 907. <
4001 2 4 78 3 131. 454. 907. <
4001 1 -4 78 -3 131. 454. 907. <
4002 3 -3 -79 3 241. 0. 907. <
4002 2 3 79 -3 241. 0. 907. <
4002 1 -3 79 3 241. 0. 907. <
4003 3 3 -79 -3 239. 1361. 1361. <
4003 2 -3 79 3 239. 1361. 1361. <
4003 1 3 79 -3 239. 1361. 1361. <
4004 3 -3 -79 1 374. 1815. 907. <
4004 2 1 79 -3 374. 1815. 907. <
4004 1 -1 79 3 374. 1815. 907. <
4005 3 3 -79 -1 375. 1815. 1361. <
4005 2 -1 79 3 375. 1815. 1361. <
4005 1 1 79 -3 375. 1815. 1361. <
4006 3 -3 -79 -1 375. -454. 907. <
4006 2 -1 79 -3 375. -454. 907. <
4006 1 1 79 3 375. -454. 907. <
4007 3 3 -79 1 375. -454. 1815. <
4007 2 1 79 3 375. -454. 1815. <
4007 1 -1 79 -3 375. -454. 1815. <
4008 3 -3 -79 -3 240. 907. 907. <
4008 2 -3 79 -3 240. 907. 907. <
4008 1 3 79 3 240. 907. 907. <
4009 3 3 -79 3 240. 1361. 1361. <
4009 2 3 79 3 240. 1361. 1361. <
4009 1 -3 79 -3 240. 1361. 1361. <
4010 2 4 80 -3 649. 0. 907. <
4010 1 -4 80 3 649. 0. 907. <
4011 2 -4 80 3 648. 0. 1361. <
4011 1 4 80 -3 648. 0. 1361. <
4012 2 2 80 -3 1354. 2268. 907. o
4012 1 -2 80 3 1354. 2268. 907. o
4013 2 -2 80 3 1353. 907. 1361. <
4013 1 2 80 -3 1353. 907. 1361. <
4014 2 0 80 -3 4406. 4537. 907. o
4014 1 0 80 3 4406. 4537. 907. o
4015 2 0 80 3 4406. 3629. 1362. o
4015 1 0 80 -3 4406. 3629. 1362. o
4016 2 -2 80 -3 1353. 454. 908. <
4016 1 2 80 3 1353. 454. 908. <
4017 2 2 80 3 1354. 907. 1361. <
4017 1 -2 80 -3 1354. 907. 1361. <
4018 2 -4 80 -3 648. 3176. 906. o
4018 1 4 80 3 648. 3176. 906. o
4019 2 4 80 3 649. 907. 907. <
4019 1 -4 80 -3 649. 907. 907. <
4020 3 -3 -81 3 492. 907. 907. <
4020 2 3 81 -3 492. 907. 907. <
4020 1 -3 81 3 492. 907. 907. <
4021 3 3 -81 -3 494. 454. 1361. <
4021 2 -3 81 3 494. 454. 1361. <
4021 1 3 81 -3 494. 454. 1361. <
4022 3 -3 -81 1 814. 1815. 907. <
4022 2 1 81 -3 814. 1815. 907. <
4022 1 -1 81 3 814. 1815. 907. <
4023 3 3 -81 -1 816. 1815. 1361. <
4023 2 -1 81 3 816. 1815. 1361. <
4023 1 1 81 -3 816. 1815. 1361. <
4024 3 -3 -81 -1 814. 454. 907. <
4024 2 -1 81 -3 814. 454. 907. <
4024 1 1 81 3 814. 454. 907. <
4025 3 3 -81 1 816. 454. 1361. <
4025 2 1 81 3 816. 454. 1361. <
4025 1 -1 81 -3 816. 454. 1361. <
4026 3 -3 -81 -3 493. 1815. 907. <
4026 2 -3 81 -3 493. 1815. 907. <
4026 1 3 81 3 493. 1815. 907. <
4027 3 3 -81 3 493. 907. 1361. <
4027 2 3 81 3 493. 907. 1361. <
4027 1 -3 81 -3 493. 907. 1361. <
4028 2 2 82 -3 5. 907. 907. <
4028 1 -2 82 3 5. 907. 907. <
4029 2 -2 82 3 5. 1361. 1361. <
4029 1 2 82 -3 5. 1361. 1361. <
4030 2 0 82 -3 1. 0. 907. <
4030 1 0 82 3 1. 0. 907. <
4031 2 0 82 3 1. -454. 1361. <
4031 1 0 82 -3 1. -454. 1361. <
4032 2 -2 82 -3 5. 2268. 906. o
4032 1 2 82 3 5. 2268. 906. o
4033 2 2 82 3 5. 454. 1361. <
4033 1 -2 82 -3 5. 454. 1361. <
4034 3 -3 -83 3 387. 907. 907. <
4034 2 3 83 -3 387. 907. 907. <
4034 1 -3 83 3 387. 907. 907. <
4035 3 3 -83 -3 387. 2268. 1360. <
4035 2 -3 83 3 387. 2268. 1360. <
4035 1 3 83 -3 387. 2268. 1360. <
4036 3 -3 -83 1 618. 2268. 906. o
4036 2 1 83 -3 618. 2268. 906. o
4036 1 -1 83 3 618. 2268. 906. o
4037 3 3 -83 -1 621. 454. 1361. <
4037 2 -1 83 3 621. 454. 1361. <
4037 1 1 83 -3 621. 454. 1361. <
4038 3 -3 -83 -1 619. 1815. 907. <
4038 2 -1 83 -3 619. 1815. 907. <
4038 1 1 83 3 619. 1815. 907. <
4039 3 3 -83 1 621. 907. 1361. <
4039 2 1 83 3 621. 907. 1361. <
4039 1 -1 83 -3 621. 907. 1361. <
4040 3 -3 -83 -3 387. -1361. 907. <
4040 2 -3 83 -3 387. -1361. 907. <
4040 1 3 83 3 387. -1361. 907. <
4041 3 3 -83 3 387. 3176. 1814. <
4041 2 3 83 3 387. 3176. 1814. <
4041 1 -3 83 -3 387. 3176. 1814. <
4042 2 2 84 -3 10. 0. 907. <
4042 1 -2 84 3 10. 0. 907. <
4043 2 -2 84 3 10. 2722. 1360. <
4043 1 2 84 -3 10. 2722. 1360. <
4044 2 0 84 -3 3. 1815. 907. <
4044 1 0 84 3 3. 1815. 907. <
4045 2 0 84 3 3. 454. 1361. <
4045 1 0 84 -3 3. 454. 1361. <
4046 2 -2 84 -3 11. 907. 907. <
4046 1 2 84 3 11. 907. 907. <
4047 2 2 84 3 10. -454. 1361. <
4047 1 -2 84 -3 10. -454. 1361. <
4048 3 -3 -85 1 2315. 3629. 906. o
4048 2 1 85 -3 2315. 3629. 906. o
4048 1 -1 85 3 2315. 3629. 906. o
4049 3 3 -85 -1 2305. 2268. 1361. <
4049 2 -1 85 3 2305. 2268. 1361. <
4049 1 1 85 -3 2305. 2268. 1361. <
4050 3 -3 -85 -1 2311. 3629. 906. o
4050 2 -1 85 -3 2311. 3629. 906. o
4050 1 1 85 3 2311. 3629. 906. o
4051 3 3 -85 1 2309. 0. 1361. <
4051 2 1 85 3 2309. 0. 1361. <
4051 1 -1 85 -3 2309. 0. 1361. <
4052 2 2 86 -3 3. 907. 907. <
4052 1 -2 86 3 3. 907. 907. <
4053 2 -2 86 3 3. -907. 1361. <
4053 1 2 86 -3 3. -907. 1361. <
4054 2 0 86 -3 1. 907. 907. <
4054 1 0 86 3 1. 907. 907. <
4055 2 0 86 3 1. 1361. 1361. <
4055 1 0 86 -3 1. 1361. 1361. <
4056 2 -2 86 -3 3. 454. 907. <
4056 1 2 86 3 3. 454. 907. <
4057 2 2 86 3 3. 2722. 1360. <
4057 1 -2 86 -3 3. 2722. 1360. <
4058 3 -3 -87 1 67. 1361. 907. <
4058 2 1 87 -3 67. 1361. 907. <
4058 1 -1 87 3 67. 1361. 907. <
4059 3 3 -87 -1 55. 0. 907. <
4059 2 -1 87 3 55. 0. 907. <
4059 1 1 87 -3 55. 0. 907. <
4060 3 -3 -87 -1 63. 0. 907. <
4060 2 -1 87 -3 63. 0. 907. <
4060 1 1 87 3 63. 0. 907. <
4061 3 3 -87 1 58. 454. 1361. <
4061 2 1 87 3 58. 454. 1361. <
4061 1 -1 87 -3 58. 454. 1361. <
4062 2 0 88 -3 1. 454. 907. <
4062 1 0 88 3 1. 454. 907. <
4063 2 0 88 3 1. -907. 1361. <
4063 1 0 88 -3 1. -907. 1361. <
4064 3 -4 0 8 116389. 75760. 4313. o
4064 2 8 0 -4 116389. 75760. 4313. o
4064 1 -8 0 4 116389. 75760. 4313. o
4065 3 4 0 -8 115541. 148799. 1644. o
4065 2 -8 0 4 115541. 148799. 1644. o
4065 1 8 0 -4 115541. 148799. 1644. o
4066 3 -4 0 6 10740. 6351. 1368. o
4066 2 6 0 -4 10740. 6351. 1368. o
4066 1 -6 0 4 10740. 6351. 1368. o
4067 3 4 0 -6 12817. 8166. 920. o
4067 2 -6 0 4 12817. 8166. 920. o
4067 1 6 0 -4 12817. 8166. 920. o
4068 3 -4 0 2 39530. 46273. 1302. o
4068 2 2 0 -4 39530. 46273. 1302. o
4068 1 -2 0 4 39530. 46273. 1302. o
4069 3 4 0 -2 44210. 46726. 1338. o
4069 2 -2 0 4 44210. 46726. 1338. o
4069 1 2 0 -4 44210. 46726. 1338. o
4070 3 -4 0 -2 41655. 48541. 1297. o
4070 2 -2 0 -4 41655. 48541. 1297. o
4070 1 2 0 4 41655. 48541. 1297. o
4071 3 4 0 2 42084. 47634. 1310. o
4071 2 2 0 4 42084. 47634. 1310. o
4071 1 -2 0 -4 42084. 47634. 1310. o
4072 3 -4 0 -4 1979100. 2207040. 41522. o
4072 2 -4 0 -4 1979100. 2207040. 41522. o
4072 1 4 0 4 1979100. 2207040. 41522. o
4073 3 4 0 4 1979180. 2327250. 42453. o
4073 2 4 0 4 1979180. 2327250. 42453. o
4073 1 -4 0 -4 1979180. 2327250. 42453. o
4074 3 -4 0 -6 11715. 8619. 916. o
4074 2 -6 0 -4 11715. 8619. 916. o
4074 1 6 0 4 11715. 8619. 916. o
4075 3 4 0 6 11842. 12249. 1360. o
4075 2 6 0 4 11842. 12249. 1360. o
4075 1 -6 0 -4 11842. 12249. 1360. o
4076 3 -4 0 -8 116125. 68956. 3495. o
4076 2 -8 0 -4 116125. 68956. 3495. o
4076 1 8 0 4 116125. 68956. 3495. o
4077 2 9 1 -4 29. 454. 2268. <
4077 1 -9 1 4 29. 454. 2268. <
4078 2 -9 1 4 28. 0. 454. <
4078 1 9 1 -4 28. 0. 454. <
4079 2 7 1 -4 179. -454. 907. <
4079 1 -7 1 4 179. -454. 907. <
4080 2 -7 1 4 180. 1815. 452. o
4080 1 7 1 -4 180. 1815. 452. o
4081 2 5 1 -4 199. 907. 907. <
4081 1 -5 1 4 199. 907. 907. <
4082 2 -5 1 4 196. 454. 454. <
4082 1 5 1 -4 196. 454. 454. <
4083 2 3 1 -4 3507. 3629. 453. o
4083 1 -3 1 4 3507. 3629. 453. o
4084 2 -3 1 4 3504. 4083. 452. o
4084 1 3 1 -4 3504. 4083. 452. o
4085 2 1 1 -4 13522. 13156. 457. o
4085 1 -1 1 4 13522. 13156. 457. o
4086 2 -1 1 4 13508. 12702. 460. o
4086 1 1 1 -4 13508. 12702. 460. o
4087 2 -1 1 -4 13508. 12702. 460. o
4087 1 1 1 4 13508. 12702. 460. o
4088 2 1 1 4 13522. 14063. 449. o
4088 1 -1 1 -4 13522. 14063. 449. o
4089 2 -3 1 -4 3504. 2722. 455. o
4089 1 3 1 4 3504. 2722. 455. o
4090 2 3 1 4 3507. 3629. 453. o
4090 1 -3 1 -4 3507. 3629. 453. o
4091 2 -5 1 -4 196. -454. 454. <
4091 1 5 1 4 196. -454. 454. <
4092 2 5 1 4 199. 454. 907. <
4092 1 -5 1 -4 199. 454. 907. <
4093 2 -7 1 -4 180. 1815. 907. <
4093 1 7 1 4 180. 1815. 907. <
4094 2 -9 1 -4 28. 907. 1815. <
4094 1 9 1 4 28. 907. 1815. <
4095 3 -4 -2 8 21577. 29034. 2245. o
4095 2 8 2 -4 21577. 29034. 2245. o
4095 1 -8 2 4 21577. 29034. 2245. o
4096 3 4 -2 -8 21498. 32663. 1296. o
4096 2 -8 2 4 21498. 32663. 1296. o
4096 1 8 2 -4 21498. 32663. 1296. o
4097 3 -4 -2 6 2334. 2268. 907. o
4097 2 6 2 -4 2334. 2268. 907. o
4097 1 -6 2 4 2334. 2268. 907. o
4098 3 4 -2 -6 2698. 1815. 455. o
4098 2 -6 2 4 2698. 1815. 455. o
4098 1 6 2 -4 2698. 1815. 455. o
4099 3 -4 -2 4 143215. 132467. 2862. o
4099 2 4 2 -4 143215. 132467. 2862. o
4099 1 -4 2 4 143215. 132467. 2862. o
4100 3 4 -2 -4 143158. 175565. 667. o
4100 2 -4 2 4 143158. 175565. 667. o
4100 1 4 2 -4 143158. 175565. 667. o
4101 3 -4 -2 2 6988. 9073. 443. o
4101 2 2 2 -4 6988. 9073. 443. o
4101 1 -2 2 4 6988. 9073. 443. o
4102 3 4 -2 -2 7624. 5898. 460. o
4102 2 -2 2 4 7624. 5898. 460. o
4102 1 2 2 -4 7624. 5898. 460. o
4103 3 -4 -2 0 315283. 364739. 6879. o
4103 2 0 2 -4 315283. 364739. 6879. o
4103 1 0 2 4 315283. 364739. 6879. o
4104 3 4 -2 0 315144. 332983. 426. o
4104 2 0 2 4 315144. 332983. 426. o
4104 1 0 2 -4 315144. 332983. 426. o
4105 3 -4 -2 -2 7320. 8166. 450. o
4105 2 -2 2 -4 7320. 8166. 450. o
4105 1 2 2 4 7320. 8166. 450. o
4106 3 4 -2 2 7292. 6805. 456. o
4106 2 2 2 4 7292. 6805. 456. o
4106 1 -2 2 -4 7292. 6805. 456. o
4107 3 -4 -2 -4 143185. 259945. 4291. o
4107 2 -4 2 -4 143185. 259945. 4291. o
4107 1 4 2 4 143185. 259945. 4291. o
4108 3 -4 -2 -6 2514. 2268. 454. o
4108 2 -6 2 -4 2514. 2268. 454. o
4108 1 6 2 4 2514. 2268. 454. o
4109 3 4 -2 6 2517. 3629. 906. o
4109 2 6 2 4 2517. 3629. 906. o
4109 1 -6 2 -4 2517. 3629. 906. o
4110 3 -4 -2 -8 21516. 21776. 2268. o
4110 2 -8 2 -4 21516. 21776. 2268. o
4110 1 8 2 4 21516. 21776. 2268. o
4111 2 9 3 -4 97. 1815. 2722. <
4111 1 -9 3 4 97. 1815. 2722. <
4112 2 -9 3 4 98. -454. 454. <
4112 1 9 3 -4 98. -454. 454. <
4113 2 7 3 -4 195. 1361. 907. <
4113 1 -7 3 4 195. 1361. 907. <
4114 2 -7 3 4 193. 907. 453. <
4114 1 7 3 -4 193. 907. 453. <
4115 2 5 3 -4 864. 0. 454. <
4115 1 -5 3 4 864. 0. 454. <
4116 2 -5 3 4 864. 454. 454. <
4116 1 5 3 -4 864. 454. 454. <
4117 2 3 3 -4 6432. 6351. 454. o
4117 1 -3 3 4 6432. 6351. 454. o
4118 2 -3 3 4 6421. 7258. 450. o
4118 1 3 3 -4 6421. 7258. 450. o
4119 2 1 3 -4 19051. 18600. 910. o
4119 1 -1 3 4 19051. 18600. 910. o
4120 2 -1 3 4 19043. 19054. 454. o
4120 1 1 3 -4 19043. 19054. 454. o
4121 2 -1 3 -4 19043. 19054. 454. o
4121 1 1 3 4 19043. 19054. 454. o
4122 2 1 3 4 19051. 19507. 905. o
4122 1 -1 3 -4 19051. 19507. 905. o
4123 2 -3 3 -4 6421. 6805. 452. o
4123 1 3 3 4 6421. 6805. 452. o
4124 2 3 3 4 6432. 6805. 452. o
4124 1 -3 3 -4 6432. 6805. 452. o
4125 2 -5 3 -4 864. 907. 454. <
4125 1 5 3 4 864. 907. 454. <
4126 2 5 3 4 864. 907. 907. <
4126 1 -5 3 -4 864. 907. 907. <
4127 2 -7 3 -4 193. 454. 907. <
4127 1 7 3 4 193. 454. 907. <
4128 2 -9 3 -4 98. 454. 1815. <
4128 1 9 3 4 98. 454. 1815. <
4129 3 -4 -4 8 8861. 4083. 1366. o
4129 2 8 4 -4 8861. 4083. 1366. o
4129 1 -8 4 4 8861. 4083. 1366. o
4130 3 4 -4 -8 8844. 8166. 1362. o
4130 2 -8 4 4 8844. 8166. 1362. o
4130 1 8 4 -4 8844. 8166. 1362. o
4131 3 -4 -4 6 271. 454. 907. <
4131 2 6 4 -4 271. 454. 907. <
4131 1 -6 4 4 271. 454. 907. <
4132 3 4 -4 -6 267. 1361. 453. o
4132 2 -6 4 4 267. 1361. 453. o
4132 1 6 4 -4 267. 1361. 453. o
4133 3 4 -4 -4 75604. 94360. 1872. o
4133 2 -4 4 4 75604. 94360. 1872. o
4133 1 4 4 -4 75604. 94360. 1872. o
4134 3 -4 -4 2 547. 907. 453. <
4134 2 2 4 -4 547. 907. 453. <
4134 1 -2 4 4 547. 907. 453. <
4135 3 4 -4 -2 474. 1361. 453. o
4135 2 -2 4 4 474. 1361. 453. o
4135 1 2 4 -4 474. 1361. 453. o
4136 3 -4 -4 0 248513. 254955. 992. o
4136 2 0 4 -4 248513. 254955. 992. o
4136 1 0 4 4 248513. 254955. 992. o
4137 3 4 -4 0 248665. 259491. 612. o
4137 2 0 4 4 248665. 259491. 612. o
4137 1 0 4 -4 248665. 259491. 612. o
4138 3 -4 -4 -2 561. 907. 453. <
4138 2 -2 4 -4 561. 907. 453. <
4138 1 2 4 4 561. 907. 453. <
4139 3 4 -4 2 459. 907. 907. <
4139 2 2 4 4 459. 907. 907. <
4139 1 -2 4 -4 459. 907. 907. <
4140 3 -4 -4 -4 75568. 108424. 1954. o
4140 2 -4 4 -4 75568. 108424. 1954. o
4140 1 4 4 4 75568. 108424. 1954. o
4141 3 -4 -4 -6 242. 907. 907. <
4141 2 -6 4 -4 242. 907. 907. <
4141 1 6 4 4 242. 907. 907. <
4142 3 4 -4 6 296. 1361. 907. <
4142 2 6 4 4 296. 1361. 907. <
4142 1 -6 4 -4 296. 1361. 907. <
4143 3 -4 -4 -8 8874. 4083. 1819. o
4143 2 -8 4 -4 8874. 4083. 1819. o
4143 1 8 4 4 8874. 4083. 1819. o
4144 2 9 5 -4 1. 454. 2722. <
4144 1 -9 5 4 1. 454. 2722. <
4145 2 -9 5 4 1. 0. 454. <
4145 1 9 5 -4 1. 0. 454. <
4146 2 7 5 -4 591. 2268. 906. o
4146 1 -7 5 4 591. 2268. 906. o
4147 2 -7 5 4 597. 907. 454. <
4147 1 7 5 -4 597. 907. 454. <
4148 2 5 5 -4 1678. 1815. 907. <
4148 1 -5 5 4 1678. 1815. 907. <
4149 2 -5 5 4 1692. 907. 454. <
4149 1 5 5 -4 1692. 907. 454. <
4150 2 3 5 -4 30499. 30849. 904. o
4150 1 -3 5 4 30499. 30849. 904. o
4151 2 -3 5 4 30566. 34932. 863. o
4151 1 3 5 -4 30566. 34932. 863. o
4152 2 1 5 -4 62730. 55800. 1019. o
4152 1 -1 5 4 62730. 55800. 1019. o
4153 2 -1 5 4 62755. 60790. 942. o
4153 1 1 5 -4 62755. 60790. 942. o
4154 2 -1 5 -4 62755. 60336. 950. o
4154 1 1 5 4 62755. 60336. 950. o
4155 2 1 5 4 62730. 60790. 942. o
4155 1 -1 5 -4 62730. 60790. 942. o
4156 2 -3 5 -4 30566. 31756. 896. o
4156 1 3 5 4 30566. 31756. 896. o
4157 2 3 5 4 30499. 34478. 868. o
4157 1 -3 5 -4 30499. 34478. 868. o
4158 2 -5 5 -4 1692. 2268. 907. o
4158 1 5 5 4 1692. 2268. 907. o
4159 2 5 5 4 1678. 1361. 907. <
4159 1 -5 5 -4 1678. 1361. 907. <
4160 2 -7 5 -4 597. 0. 907. <
4160 1 7 5 4 597. 0. 907. <
4161 2 -9 5 -4 1. 1361. 1814. <
4161 1 9 5 4 1. 1361. 1814. <
4162 3 -4 -6 8 5993. 5444. 1362. o
4162 2 8 6 -4 5993. 5444. 1362. o
4162 1 -8 6 4 5993. 5444. 1362. o
4163 3 4 -6 -8 5940. 4537. 458. o
4163 2 -8 6 4 5940. 4537. 458. o
4163 1 8 6 -4 5940. 4537. 458. o
4164 3 -4 -6 6 704. 454. 907. <
4164 2 6 6 -4 704. 454. 907. <
4164 1 -6 6 4 704. 454. 907. <
4165 3 4 -6 -6 801. 454. 454. <
4165 2 -6 6 4 801. 454. 454. <
4165 1 6 6 -4 801. 454. 454. <
4166 3 -4 -6 4 69665. 77122. 1731. o
4166 2 4 6 -4 69665. 77122. 1731. o
4166 1 -4 6 4 69665. 77122. 1731. o
4167 3 4 -6 -4 69502. 78482. 679. o
4167 2 -4 6 4 69502. 78482. 679. o
4167 1 4 6 -4 69502. 78482. 679. o
4168 3 -4 -6 2 1653. 907. 454. <
4168 2 2 6 -4 1653. 907. 454. <
4168 1 -2 6 4 1653. 907. 454. <
4169 3 4 -6 -2 1861. 1815. 454. o
4169 2 -2 6 4 1861. 1815. 454. o
4169 1 2 6 -4 1861. 1815. 454. o
4170 3 -4 -6 0 209909. 200970. 1681. o
4170 2 0 6 -4 209909. 200970. 1681. o
4170 1 0 6 4 209909. 200970. 1681. o
4171 3 4 -6 0 209814. 210950. 1313. o
4171 2 0 6 4 209814. 210950. 1313. o
4171 1 0 6 -4 209814. 210950. 1313. o
4172 3 -4 -6 -2 1743. 1361. 454. o
4172 2 -2 6 -4 1743. 1361. 454. o
4172 1 2 6 4 1743. 1361. 454. o
4173 3 4 -6 2 1771. 907. 454. <
4173 2 2 6 4 1771. 907. 454. <
4173 1 -2 6 -4 1771. 907. 454. <
4174 3 -4 -6 -4 69579. 76214. 749. o
4174 2 -4 6 -4 69579. 76214. 749. o
4174 1 4 6 4 69579. 76214. 749. o
4175 3 4 -6 4 69588. 79843. 1696. o
4175 2 4 6 4 69588. 79843. 1696. o
4175 1 -4 6 -4 69588. 79843. 1696. o
4176 3 -4 -6 -6 757. 454. 454. <
4176 2 -6 6 -4 757. 454. 454. <
4176 1 6 6 4 757. 454. 454. <
4177 3 4 -6 6 748. 1361. 907. <
4177 2 6 6 4 748. 1361. 907. <
4177 1 -6 6 -4 748. 1361. 907. <
4178 3 -4 -6 -8 5969. 907. 1364. <
4178 2 -8 6 -4 5969. 907. 1364. <
4178 1 8 6 4 5969. 907. 1364. <
4179 2 9 7 -4 110. 2722. 2721. <
4179 1 -9 7 4 110. 2722. 2721. <
4180 2 -9 7 4 111. 454. 454. <
4180 1 9 7 -4 111. 454. 454. <
4181 2 7 7 -4 1279. 2722. 906. o
4181 1 -7 7 4 1279. 2722. 906. o
4182 2 -7 7 4 1270. 907. 454. <
4182 1 7 7 -4 1270. 907. 454. <
4183 2 5 7 -4 2703. 2722. 907. o
4183 1 -5 7 4 2703. 2722. 907. o
4184 2 -5 7 4 2691. 3176. 453. o
4184 1 5 7 -4 2691. 3176. 453. o
4185 2 3 7 -4 55472. 59429. 837. o
4185 1 -3 7 4 55472. 59429. 837. o
4186 2 -3 7 4 55410. 52624. 950. o
4186 1 3 7 -4 55410. 52624. 950. o
4187 2 1 7 -4 112303. 104794. 1119. o
4187 1 -1 7 4 112303. 104794. 1119. o
4188 2 -1 7 4 112268. 104794. 1118. o
4188 1 1 7 -4 112268. 104794. 1118. o
4189 2 -1 7 -4 112268. 104341. 1129. o
4189 1 1 7 4 112268. 104341. 1129. o
4190 2 1 7 4 112303. 104794. 1119. o
4190 1 -1 7 -4 112303. 104794. 1119. o
4191 2 -3 7 -4 55410. 52624. 950. o
4191 1 3 7 4 55410. 52624. 950. o
4192 2 3 7 4 55472. 57161. 879. o
4192 1 -3 7 -4 55472. 57161. 879. o
4193 2 -5 7 -4 2691. 2722. 907. o
4193 1 5 7 4 2691. 2722. 907. o
4194 2 5 7 4 2703. 1815. 908. <
4194 1 -5 7 -4 2703. 1815. 908. <
4195 2 -7 7 -4 1270. 1361. 907. <
4195 1 7 7 4 1270. 1361. 907. <
4196 2 -9 7 -4 111. 907. 1815. <
4196 1 9 7 4 111. 907. 1815. <
4197 3 -4 -8 8 6943. 4990. 1816. o
4197 2 8 8 -4 6943. 4990. 1816. o
4197 1 -8 8 4 6943. 4990. 1816. o
4198 3 4 -8 -8 6949. 4537. 911. o
4198 2 -8 8 4 6949. 4537. 911. o
4198 1 8 8 -4 6949. 4537. 911. o
4199 3 -4 -8 6 599. 907. 907. <
4199 2 6 8 -4 599. 907. 907. <
4199 1 -6 8 4 599. 907. 907. <
4200 3 4 -8 -6 546. -454. 454. <
4200 2 -6 8 4 546. -454. 454. <
4200 1 6 8 -4 546. -454. 454. <
4201 3 -4 -8 4 43765. 51263. 1760. o
4201 2 4 8 -4 43765. 51263. 1760. o
4201 1 -4 8 4 43765. 51263. 1760. o
4202 3 4 -8 -4 43874. 48995. 833. o
4202 2 -4 8 4 43874. 48995. 833. o
4202 1 4 8 -4 43874. 48995. 833. o
4203 3 -4 -8 2 517. 454. 454. <
4203 2 2 8 -4 517. 454. 454. <
4203 1 -2 8 4 517. 454. 454. <
4204 3 4 -8 -2 414. 907. 453. <
4204 2 -2 8 4 414. 907. 453. <
4204 1 2 8 -4 414. 907. 453. <
4205 3 -4 -8 0 128551. 131107. 804. o
4205 2 0 8 -4 128551. 131107. 804. o
4205 1 0 8 4 128551. 131107. 804. o
4206 3 4 -8 0 128714. 127024. 969. o
4206 2 0 8 4 128714. 127024. 969. o
4206 1 0 8 -4 128714. 127024. 969. o
4207 3 -4 -8 -2 513. 907. 453. <
4207 2 -2 8 -4 513. 907. 453. <
4207 1 2 8 4 513. 907. 453. <
4208 3 4 -8 2 418. 907. 453. <
4208 2 2 8 4 418. 907. 453. <
4208 1 -2 8 -4 418. 907. 453. <
4209 3 -4 -8 -4 43823. 51717. 1283. o
4209 2 -4 8 -4 43823. 51717. 1283. o
4209 1 4 8 4 43823. 51717. 1283. o
4210 3 4 -8 4 43816. 54892. 1729. o
4210 2 4 8 4 43816. 54892. 1729. o
4210 1 -4 8 -4 43816. 54892. 1729. o
4211 3 -4 -8 -6 550. 454. 454. <
4211 2 -6 8 -4 550. 454. 454. <
4211 1 6 8 4 550. 454. 454. <
4212 3 4 -8 6 595. 907. 907. <
4212 2 6 8 4 595. 907. 907. <
4212 1 -6 8 -4 595. 907. 907. <
4213 3 -4 -8 -8 6963. 2268. 1364. <
4213 2 -8 8 -4 6963. 2268. 1364. <
4213 1 8 8 4 6963. 2268. 1364. <
4214 2 9 9 -4 172. -2268. 2722. <
4214 1 -9 9 4 172. -2268. 2722. <
4215 2 -9 9 4 173. 907. 453. <
4215 1 9 9 -4 173. 907. 453. <
4216 2 7 9 -4 200. 907. 907. <
4216 1 -7 9 4 200. 907. 907. <
4217 2 -7 9 4 199. 454. 454. <
4217 1 7 9 -4 199. 454. 454. <
4218 2 5 9 -4 36. 0. 454. <
4218 1 -5 9 4 36. 0. 454. <
4219 2 -5 9 4 37. 907. 907. <
4219 1 5 9 -4 37. 907. 907. <
4220 2 3 9 -4 5411. 8166. 901. o
4220 1 -3 9 4 5411. 8166. 901. o
4221 2 -3 9 4 5421. 7258. 446. o
4221 1 3 9 -4 5421. 7258. 446. o
4222 2 1 9 -4 17154. 16332. 462. o
4222 1 -1 9 4 17154. 16332. 462. o
4223 2 -1 9 4 17159. 17239. 453. o
4223 1 1 9 -4 17159. 17239. 453. o
4224 2 -1 9 -4 17159. 16785. 457. o
4224 1 1 9 4 17159. 16785. 457. o
4225 2 1 9 4 17154. 17693. 448. o
4225 1 -1 9 -4 17154. 17693. 448. o
4226 2 -3 9 -4 5421. 6351. 450. o
4226 1 3 9 4 5421. 6351. 450. o
4227 2 3 9 4 5411. 6805. 905. o
4227 1 -3 9 -4 5411. 6805. 905. o
4228 2 -5 9 -4 37. 0. 454. <
4228 1 5 9 4 37. 0. 454. <
4229 2 5 9 4 36. 454. 907. <
4229 1 -5 9 -4 36. 454. 907. <
4230 2 -7 9 -4 199. 907. 907. <
4230 1 7 9 4 199. 907. 907. <
4231 2 -9 9 -4 173. -454. 1815. <
4231 1 9 9 4 173. -454. 1815. <
4232 3 -4 -10 8 14599. 19507. 2258. o
4232 2 8 10 -4 14599. 19507. 2258. o
4232 1 -8 10 4 14599. 19507. 2258. o
4233 3 -4 -10 6 416. 2268. 1360. <
4233 2 6 10 -4 416. 2268. 1360. <
4233 1 -6 10 4 416. 2268. 1360. <
4234 3 4 -10 -6 449. 1361. 453. o
4234 2 -6 10 4 449. 1361. 453. o
4234 1 6 10 -4 449. 1361. 453. o
4235 3 -4 -10 4 52262. 48541. 1842. o
4235 2 4 10 -4 52262. 48541. 1842. o
4235 1 -4 10 4 52262. 48541. 1842. o
4236 3 4 -10 -4 51843. 80297. 882. o
4236 2 -4 10 4 51843. 80297. 882. o
4236 1 4 10 -4 51843. 80297. 882. o
4237 3 -4 -10 2 326. 907. 453. <
4237 2 2 10 -4 326. 907. 453. <
4237 1 -2 10 4 326. 907. 453. <
4238 3 4 -10 -2 414. 907. 453. <
4238 2 -2 10 4 414. 907. 453. <
4238 1 2 10 -4 414. 907. 453. <
4239 3 -4 -10 0 44278. 39922. 959. o
4239 2 0 10 -4 44278. 39922. 959. o
4239 1 0 10 4 44278. 39922. 959. o
4240 3 4 -10 0 44069. 51717. 789. o
4240 2 0 10 4 44069. 51717. 789. o
4240 1 0 10 -4 44069. 51717. 789. o
4241 3 -4 -10 -2 310. 907. 453. <
4241 2 -2 10 -4 310. 907. 453. <
4241 1 2 10 4 310. 907. 453. <
4242 3 4 -10 2 430. 1815. 453. o
4242 2 2 10 4 430. 1815. 453. o
4242 1 -2 10 -4 430. 1815. 453. o
4243 3 -4 -10 -4 52040. 32663. 1502. o
4243 2 -4 10 -4 52040. 32663. 1502. o
4243 1 4 10 4 52040. 32663. 1502. o
4244 3 -4 -10 -6 463. 907. 453. <
4244 2 -6 10 -4 463. 907. 453. <
4244 1 6 10 4 463. 907. 453. <
4245 3 4 -10 6 401. 1815. 907. <
4245 2 6 10 4 401. 1815. 907. <
4245 1 -6 10 -4 401. 1815. 907. <
4246 3 -4 -10 -8 14552. 16785. 2264. o
4246 2 -8 10 -4 14552. 16785. 2264. o
4246 1 8 10 4 14552. 16785. 2264. o
4247 2 9 11 -4 92. 5898. 3174. <
4247 1 -9 11 4 92. 5898. 3174. <
4248 2 -9 11 4 92. 907. 453. <
4248 1 9 11 -4 92. 907. 453. <
4249 2 7 11 -4 450. 907. 907. <
4249 1 -7 11 4 450. 907. 907. <
4250 2 -7 11 4 451. 907. 453. <
4250 1 7 11 -4 451. 907. 453. <
4251 2 5 11 -4 405. 454. 454. <
4251 1 -5 11 4 405. 454. 454. <
4252 2 -5 11 4 402. 454. 907. <
4252 1 5 11 -4 402. 454. 907. <
4253 2 3 11 -4 1242. 907. 454. <
4253 1 -3 11 4 1242. 907. 454. <
4254 2 -3 11 4 1250. 1361. 454. o
4254 1 3 11 -4 1250. 1361. 454. o
4255 2 1 11 -4 10046. 9073. 459. o
4255 1 -1 11 4 10046. 9073. 459. o
4256 2 -1 11 4 10039. 9073. 459. o
4256 1 1 11 -4 10039. 9073. 459. o
4257 2 -1 11 -4 10039. 8166. 463. o
4257 1 1 11 4 10039. 8166. 463. o
4258 2 1 11 4 10046. 9527. 457. o
4258 1 -1 11 -4 10046. 9527. 457. o
4259 2 -3 11 -4 1250. 1361. 454. o
4259 1 3 11 4 1250. 1361. 454. o
4260 2 3 11 4 1242. 1815. 907. <
4260 1 -3 11 -4 1242. 1815. 907. <
4261 2 -5 11 -4 402. 907. 453. <
4261 1 5 11 4 402. 907. 453. <
4262 2 5 11 4 405. 454. 454. <
4262 1 -5 11 -4 405. 454. 454. <
4263 2 -7 11 -4 451. 454. 907. <
4263 1 7 11 4 451. 454. 907. <
4264 2 -9 11 -4 92. 907. 1815. <
4264 1 9 11 4 92. 907. 1815. <
4265 3 -4 -12 8 94919. 61244. 2951. o
4265 2 8 12 -4 94919. 61244. 2951. o
4265 1 -8 12 4 94919. 61244. 2951. o
4266 3 4 -12 -8 94175. 130653. 1685. o
4266 2 -8 12 4 94175. 130653. 1685. o
4266 1 8 12 -4 94175. 130653. 1685. o
4267 3 -4 -12 6 5627. 6351. 1360. o
4267 2 6 12 -4 5627. 6351. 1360. o
4267 1 -6 12 4 5627. 6351. 1360. o
4268 3 4 -12 -6 6851. 6805. 907. o
4268 2 -6 12 4 6851. 6805. 907. o
4268 1 6 12 -4 6851. 6805. 907. o
4269 3 -4 -12 4 1229860. 1335110. 25786. o
4269 2 4 12 -4 1229860. 1335110. 25786. o
4269 1 -4 12 4 1229860. 1335110. 25786. o
4270 3 4 -12 -4 1226550. 1478010. 26597. o
4270 2 -4 12 4 1226550. 1478010. 26597. o
4270 1 4 12 -4 1226550. 1478010. 26597. o
4271 3 -4 -12 2 32419. 30849. 922. o
4271 2 2 12 -4 32419. 30849. 922. o
4271 1 -2 12 4 32419. 30849. 922. o
4272 3 4 -12 -2 32628. 31302. 920. o
4272 2 -2 12 4 32628. 31302. 920. o
4272 1 2 12 -4 32628. 31302. 920. o
4273 3 -4 -12 -2 32698. 30395. 928. o
4273 2 -2 12 -4 32698. 30395. 928. o
4273 1 2 12 4 32698. 30395. 928. o
4274 3 4 -12 2 32349. 32210. 909. o
4274 2 2 12 4 32349. 32210. 909. o
4274 1 -2 12 -4 32349. 32210. 909. o
4275 3 -4 -12 -4 1228110. 1352800. 25591. o
4275 2 -4 12 -4 1228110. 1352800. 25591. o
4275 1 4 12 4 1228110. 1352800. 25591. o
4276 3 -4 -12 -6 6128. 6805. 906. o
4276 2 -6 12 -4 6128. 6805. 906. o
4276 1 6 12 4 6128. 6805. 906. o
4277 3 4 -12 6 6350. 4990. 1816. o
4277 2 6 12 4 6350. 4990. 1816. o
4277 1 -6 12 -4 6350. 4990. 1816. o
4278 3 -4 -12 -8 94655. 67141. 2920. o
4278 2 -8 12 -4 94655. 67141. 2920. o
4278 1 8 12 4 94655. 67141. 2920. o
4279 2 9 13 -4 11. 2722. 2721. <
4279 1 -9 13 4 11. 2722. 2721. <
4280 2 -9 13 4 11. -454. 454. <
4280 1 9 13 -4 11. -454. 454. <
4281 2 7 13 -4 14. -907. 907. <
4281 1 -7 13 4 14. -907. 907. <
4282 2 -7 13 4 14. 454. 454. <
4282 1 7 13 -4 14. 454. 454. <
4283 2 5 13 -4 12. 454. 907. <
4283 1 -5 13 4 12. 454. 907. <
4284 2 -5 13 4 13. 907. 453. <
4284 1 5 13 -4 13. 907. 453. <
4285 2 3 13 -4 1132. 1361. 453. o
4285 1 -3 13 4 1132. 1361. 453. o
4286 2 -3 13 4 1134. 1815. 453. o
4286 1 3 13 -4 1134. 1815. 453. o
4287 2 1 13 -4 8413. 8619. 453. o
4287 1 -1 13 4 8413. 8619. 453. o
4288 2 -1 13 4 8422. 9073. 450. o
4288 1 1 13 -4 8422. 9073. 450. o
4289 2 -1 13 -4 8422. 9073. 450. o
4289 1 1 13 4 8422. 9073. 450. o
4290 2 1 13 4 8413. 8166. 455. o
4290 1 -1 13 -4 8413. 8166. 455. o
4291 2 -3 13 -4 1134. 1815. 453. o
4291 1 3 13 4 1134. 1815. 453. o
4292 2 3 13 4 1132. 1815. 907. <
4292 1 -3 13 -4 1132. 1815. 907. <
4293 2 -5 13 -4 13. 907. 453. <
4293 1 5 13 4 13. 907. 453. <
4294 2 5 13 4 12. 454. 454. <
4294 1 -5 13 -4 12. 454. 454. <
4295 2 -7 13 -4 14. -454. 907. <
4295 1 7 13 4 14. -454. 907. <
4296 2 -9 13 -4 11. 1361. 1361. <
4296 1 9 13 4 11. 1361. 1361. <
4297 3 -4 -14 8 21776. 26312. 2255. o
4297 2 8 14 -4 21776. 26312. 2255. o
4297 1 -8 14 4 21776. 26312. 2255. o
4298 3 4 -14 -8 21618. 24497. 1348. o
4298 2 -8 14 4 21618. 24497. 1348. o
4298 1 8 14 -4 21618. 24497. 1348. o
4299 3 -4 -14 6 699. 2722. 1360. <
4299 2 6 14 -4 699. 2722. 1360. <
4299 1 -6 14 4 699. 2722. 1360. <
4300 3 4 -14 -6 826. 907. 907. <
4300 2 -6 14 4 826. 907. 907. <
4300 1 6 14 -4 826. 907. 907. <
4301 3 4 -14 -4 145823. 203238. 1331. o
4301 2 -4 14 4 145823. 203238. 1331. o
4301 1 4 14 -4 145823. 203238. 1331. o
4302 3 -4 -14 2 9763. 7258. 465. o
4302 2 2 14 -4 9763. 7258. 465. o
4302 1 -2 14 4 9763. 7258. 465. o
4303 3 4 -14 -2 9753. 9073. 457. o
4303 2 -2 14 4 9753. 9073. 457. o
4303 1 2 14 -4 9753. 9073. 457. o
4304 3 -4 -14 0 240155. 224106. 2293. o
4304 2 0 14 -4 240155. 224106. 2293. o
4304 1 0 14 4 240155. 224106. 2293. o
4305 3 4 -14 0 239763. 233179. 2030. o
4305 2 0 14 4 239763. 233179. 2030. o
4305 1 0 14 -4 239763. 233179. 2030. o
4306 3 -4 -14 -2 9715. 9980. 907. o
4306 2 -2 14 -4 9715. 9980. 907. o
4306 1 2 14 4 9715. 9980. 907. o
4307 3 4 -14 2 9802. 8166. 911. o
4307 2 2 14 4 9802. 8166. 911. o
4307 1 -2 14 -4 9802. 8166. 911. o
4308 3 -4 -14 -4 146144. 111599. 2358. o
4308 2 -4 14 -4 146144. 111599. 2358. o
4308 1 4 14 4 146144. 111599. 2358. o
4309 3 -4 -14 -6 788. 1815. 907. <
4309 2 -6 14 -4 788. 1815. 907. <
4309 1 6 14 4 788. 1815. 907. <
4310 3 4 -14 6 738. -907. 1815. <
4310 2 6 14 4 738. -907. 1815. <
4310 1 -6 14 -4 738. -907. 1815. <
4311 3 -4 -14 -8 21699. 27673. 1792. o
4311 2 -8 14 -4 21699. 27673. 1792. o
4311 1 8 14 4 21699. 27673. 1792. o
4312 2 9 15 -4 88. 3629. 2721. <
4312 1 -9 15 4 88. 3629. 2721. <
4313 2 -9 15 4 89. 907. 453. <
4313 1 9 15 -4 89. 907. 453. <
4314 2 7 15 -4 246. 0. 907. <
4314 1 -7 15 4 246. 0. 907. <
4315 2 -7 15 4 244. 454. 454. <
4315 1 7 15 -4 244. 454. 454. <
4316 2 5 15 -4 1447. 0. 454. <
4316 1 -5 15 4 1447. 0. 454. <
4317 2 -5 15 4 1452. 907. 454. <
4317 1 5 15 -4 1452. 907. 454. <
4318 2 3 15 -4 2020. 2722. 453. o
4318 1 -3 15 4 2020. 2722. 453. o
4319 2 -3 15 4 2026. 3629. 906. o
4319 1 3 15 -4 2026. 3629. 906. o
4320 2 1 15 -4 15269. 13610. 467. o
4320 1 -1 15 4 15269. 13610. 467. o
4321 2 -1 15 4 15284. 14517. 460. o
4321 1 1 15 -4 15284. 14517. 460. o
4322 2 -1 15 -4 15284. 14517. 460. o
4322 1 1 15 4 15284. 14517. 460. o
4323 2 1 15 4 15269. 14971. 456. o
4323 1 -1 15 -4 15269. 14971. 456. o
4324 2 -3 15 -4 2026. 1815. 454. o
4324 1 3 15 4 2026. 1815. 454. o
4325 2 3 15 4 2020. 2722. 453. o
4325 1 -3 15 -4 2020. 2722. 453. o
4326 2 -5 15 -4 1452. 1361. 454. o
4326 1 5 15 4 1452. 1361. 454. o
4327 2 5 15 4 1447. 907. 907. <
4327 1 -5 15 -4 1447. 907. 907. <
4328 2 -7 15 -4 244. 454. 907. <
4328 1 7 15 4 244. 454. 907. <
4329 2 -9 15 -4 89. 2268. 1360. <
4329 1 9 15 4 89. 2268. 1360. <
4330 3 -4 -16 8 6887. 907. 1817. <
4330 2 8 16 -4 6887. 907. 1817. <
4330 1 -8 16 4 6887. 907. 1817. <
4331 3 4 -16 -8 6861. 5898. 909. o
4331 2 -8 16 4 6861. 5898. 909. o
4331 1 8 16 -4 6861. 5898. 909. o
4332 3 -4 -16 6 150. -907. 907. <
4332 2 6 16 -4 150. -907. 907. <
4332 1 -6 16 4 150. -907. 907. <
4333 3 4 -16 -6 176. 454. 907. <
4333 2 -6 16 4 176. 454. 907. <
4333 1 6 16 -4 176. 454. 907. <
4334 3 -4 -16 4 54067. 53531. 1367. o
4334 2 4 16 -4 54067. 53531. 1367. o
4334 1 -4 16 4 54067. 53531. 1367. o
4335 3 4 -16 -4 54049. 52624. 1376. o
4335 2 -4 16 4 54049. 52624. 1376. o
4335 1 4 16 -4 54049. 52624. 1376. o
4336 3 -4 -16 2 1541. 1361. 454. o
4336 2 2 16 -4 1541. 1361. 454. o
4336 1 -2 16 4 1541. 1361. 454. o
4337 3 4 -16 -2 1404. 1361. 907. <
4337 2 -2 16 4 1404. 1361. 907. <
4337 1 2 16 -4 1404. 1361. 907. <
4338 3 -4 -16 0 141240. 132921. 1567. o
4338 2 0 16 -4 141240. 132921. 1567. o
4338 1 0 16 4 141240. 132921. 1567. o
4339 3 4 -16 0 141142. 135189. 1513. o
4339 2 0 16 4 141142. 135189. 1513. o
4339 1 0 16 -4 141142. 135189. 1513. o
4340 3 -4 -16 -2 1545. 1361. 907. <
4340 2 -2 16 -4 1545. 1361. 907. <
4340 1 2 16 4 1545. 1361. 907. <
4341 3 4 -16 2 1399. 1815. 453. o
4341 2 2 16 4 1399. 1815. 453. o
4341 1 -2 16 -4 1399. 1815. 453. o
4342 3 -4 -16 -4 54057. 53985. 1362. o
4342 2 -4 16 -4 54057. 53985. 1362. o
4342 1 4 16 4 54057. 53985. 1362. o
4343 3 -4 -16 -6 138. 454. 907. <
4343 2 -6 16 -4 138. 454. 907. <
4343 1 6 16 4 138. 454. 907. <
4344 3 4 -16 6 188. 1815. 1814. <
4344 2 6 16 4 188. 1815. 1814. <
4344 1 -6 16 -4 188. 1815. 1814. <
4345 3 -4 -16 -8 6889. 3176. 1364. o
4345 2 -8 16 -4 6889. 3176. 1364. o
4345 1 8 16 4 6889. 3176. 1364. o
4346 2 9 17 -4 119. -1815. 3175. <
4346 1 -9 17 4 119. -1815. 3175. <
4347 2 -9 17 4 118. 907. 453. <
4347 1 9 17 -4 118. 907. 453. <
4348 2 7 17 -4 574. 0. 907. <
4348 1 -7 17 4 574. 0. 907. <
4349 2 -7 17 4 578. 0. 454. <
4349 1 7 17 -4 578. 0. 454. <
4350 2 -5 17 4 7132. 14063. 883. o
4350 1 5 17 -4 7132. 14063. 883. o
4351 2 3 17 -4 6432. 6351. 454. o
4351 1 -3 17 4 6432. 6351. 454. o
4352 2 -3 17 4 6419. 13156. 1346. o
4352 1 3 17 -4 6419. 13156. 1346. o
4353 2 1 17 -4 43507. 54439. 726. o
4353 1 -1 17 4 43507. 54439. 726. o
4354 2 -1 17 4 43480. 38561. 1399. o
4354 1 1 17 -4 43480. 38561. 1399. o
4355 2 -1 17 -4 43480. 39922. 949. o
4355 1 1 17 4 43480. 39922. 949. o
4356 2 1 17 4 43507. 40829. 940. o
4356 1 -1 17 -4 43507. 40829. 940. o
4357 2 -3 17 -4 6419. 6805. 452. o
4357 1 3 17 4 6419. 6805. 452. o
4358 2 3 17 4 6432. 8166. 903. o
4358 1 -3 17 -4 6432. 8166. 903. o
4359 2 -5 17 -4 7132. 11341. 895. o
4359 1 5 17 4 7132. 11341. 895. o
4360 2 -7 17 -4 578. 454. 907. <
4360 1 7 17 4 578. 454. 907. <
4361 2 -9 17 -4 118. 907. 1361. <
4361 1 9 17 4 118. 907. 1361. <
4362 3 -4 -18 8 3684. 907. 1815. <
4362 2 8 18 -4 3684. 907. 1815. <
4362 1 -8 18 4 3684. 907. 1815. <
4363 3 4 -18 -8 3655. 1361. 457. o
4363 2 -8 18 4 3655. 1361. 457. o
4363 1 8 18 -4 3655. 1361. 457. o
4364 3 -4 -18 6 667. -907. 907. <
4364 2 6 18 -4 667. -907. 907. <
4364 1 -6 18 4 667. -907. 907. <
4365 3 4 -18 -6 762. 0. 454. <
4365 2 -6 18 4 762. 0. 454. <
4365 1 6 18 -4 762. 0. 454. <
4366 3 -4 -18 4 39727. 33117. 1406. o
4366 2 4 18 -4 39727. 33117. 1406. o
4366 1 -4 18 4 39727. 33117. 1406. o
4367 3 4 -18 -4 39626. 42190. 1340. o
4367 2 -4 18 4 39626. 42190. 1340. o
4367 1 4 18 -4 39626. 42190. 1340. o
4368 3 -4 -18 2 1263. 907. 454. <
4368 2 2 18 -4 1263. 907. 454. <
4368 1 -2 18 4 1263. 907. 454. <
4369 3 4 -18 -2 1452. 907. 907. <
4369 2 -2 18 4 1452. 907. 907. <
4369 1 2 18 -4 1452. 907. 907. <
4370 3 -4 -18 0 119794. 103887. 1323. o
4370 2 0 18 -4 119794. 103887. 1323. o
4370 1 0 18 4 119794. 103887. 1323. o
4371 3 4 -18 0 119651. 107970. 1233. o
4371 2 0 18 4 119651. 107970. 1233. o
4371 1 0 18 -4 119651. 107970. 1233. o
4372 3 -4 -18 -2 1359. 907. 454. <
4372 2 -2 18 -4 1359. 907. 454. <
4372 1 2 18 4 1359. 907. 454. <
4373 3 4 -18 2 1356. 1361. 454. o
4373 2 2 18 4 1356. 1361. 454. o
4373 1 -2 18 -4 1356. 1361. 454. o
4374 3 -4 -18 -4 39674. 46726. 1298. o
4374 2 -4 18 -4 39674. 46726. 1298. o
4374 1 4 18 4 39674. 46726. 1298. o
4375 3 4 -18 4 39679. 33570. 1403. o
4375 2 4 18 4 39679. 33570. 1403. o
4375 1 -4 18 -4 39679. 33570. 1403. o
4376 3 -4 -18 -6 715. 0. 454. <
4376 2 -6 18 -4 715. 0. 454. <
4376 1 6 18 4 715. 0. 454. <
4377 3 4 -18 6 714. 907. 1361. <
4377 2 6 18 4 714. 907. 1361. <
4377 1 -6 18 -4 714. 907. 1361. <
4378 3 -4 -18 -8 3667. 3176. 1361. o
4378 2 -8 18 -4 3667. 3176. 1361. o
4378 1 8 18 4 3667. 3176. 1361. o
4379 2 9 19 -4 503. 3176. 2721. <
4379 1 -9 19 4 503. 3176. 2721. <
4380 2 -9 19 4 505. 907. 907. <
4380 1 9 19 -4 505. 907. 907. <
4381 2 7 19 -4 654. 454. 907. <
4381 1 -7 19 4 654. 454. 907. <
4382 2 -7 19 4 649. 907. 454. <
4382 1 7 19 -4 649. 907. 454. <
4383 2 -5 19 4 16968. 19054. 1353. o
4383 1 5 19 -4 16968. 19054. 1353. o
4384 2 3 19 -4 22450. 22229. 909. o
4384 1 -3 19 4 22450. 22229. 909. o
4385 2 -3 19 4 22477. 21776. 912. o
4385 1 3 19 -4 22477. 21776. 912. o
4386 2 1 19 -4 146633. 135643. 1634. o
4386 1 -1 19 4 146633. 135643. 1634. o
4387 2 -1 19 4 146661. 132467. 2081. o
4387 1 1 19 -4 146661. 132467. 2081. o
4388 2 -1 19 -4 146661. 134736. 2043. o
4388 1 1 19 4 146661. 134736. 2043. o
4389 2 1 19 4 146633. 146077. 1377. o
4389 1 -1 19 -4 146633. 146077. 1377. o
4390 2 -3 19 -4 22477. 21776. 912. o
4390 1 3 19 4 22477. 21776. 912. o
4391 2 3 19 4 22450. 19054. 927. o
4391 1 -3 19 -4 22450. 19054. 927. o
4392 2 -5 19 -4 16968. 14517. 918. o
4392 1 5 19 4 16968. 14517. 918. o
4393 2 -7 19 -4 649. 1815. 907. <
4393 1 7 19 4 649. 1815. 907. <
4394 2 -9 19 -4 505. 1815. 1361. <
4394 1 9 19 4 505. 1815. 1361. <
4395 3 -4 -20 8 3926. 3629. 1815. <
4395 2 8 20 -4 3926. 3629. 1815. <
4395 1 -8 20 4 3926. 3629. 1815. <
4396 3 4 -20 -8 3945. 1815. 457. o
4396 2 -8 20 4 3945. 1815. 457. o
4396 1 8 20 -4 3945. 1815. 457. o
4397 3 -4 -20 6 1353. 1815. 907. <
4397 2 6 20 -4 1353. 1815. 907. <
4397 1 -6 20 4 1353. 1815. 907. <
4398 3 4 -20 -6 1304. 2268. 453. o
4398 2 -6 20 4 1304. 2268. 453. o
4398 1 6 20 -4 1304. 2268. 453. o
4399 3 4 -20 -4 23745. 25405. 895. o
4399 2 -4 20 4 23745. 25405. 895. o
4399 1 4 20 -4 23745. 25405. 895. o
4400 3 -4 -20 2 6866. 6351. 456. o
4400 2 2 20 -4 6866. 6351. 456. o
4400 1 -2 20 4 6866. 6351. 456. o
4401 3 4 -20 -2 6789. 6351. 455. o
4401 2 -2 20 4 6789. 6351. 455. o
4401 1 2 20 -4 6789. 6351. 455. o
4402 3 -4 -20 0 72546. 64419. 1056. o
4402 2 0 20 -4 72546. 64419. 1056. o
4402 1 0 20 4 72546. 64419. 1056. o
4403 3 4 -20 0 72662. 67141. 1013. o
4403 2 0 20 4 72662. 67141. 1013. o
4403 1 0 20 -4 72662. 67141. 1013. o
4404 3 -4 -20 -2 6875. 6805. 454. o
4404 2 -2 20 -4 6875. 6805. 454. o
4404 1 2 20 4 6875. 6805. 454. o
4405 3 4 -20 2 6780. 5444. 458. o
4405 2 2 20 4 6780. 5444. 458. o
4405 1 -2 20 -4 6780. 5444. 458. o
4406 3 -4 -20 -4 23690. 29488. 1329. o
4406 2 -4 20 -4 23690. 29488. 1329. o
4406 1 4 20 4 23690. 29488. 1329. o
4407 3 -4 -20 -6 1311. 0. 454. <
4407 2 -6 20 -4 1311. 0. 454. <
4407 1 6 20 4 1311. 0. 454. <
4408 3 4 -20 6 1346. 1361. 1361. <
4408 2 6 20 4 1346. 1361. 1361. <
4408 1 -6 20 -4 1346. 1361. 1361. <
4409 3 -4 -20 -8 3944. 3176. 1815. <
4409 2 -8 20 -4 3944. 3176. 1815. <
4409 1 8 20 4 3944. 3176. 1815. <
4410 2 9 21 -4 309. 3629. 2721. <
4410 1 -9 21 4 309. 3629. 2721. <
4411 2 -9 21 4 310. 454. 454. <
4411 1 9 21 -4 310. 454. 454. <
4412 2 7 21 -4 69. 454. 907. <
4412 1 -7 21 4 69. 454. 907. <
4413 2 -7 21 4 69. 907. 453. <
4413 1 7 21 -4 69. 907. 453. <
4414 2 -5 21 4 1403. 907. 907. <
4414 1 5 21 -4 1403. 907. 907. <
4415 2 3 21 -4 4028. 2722. 456. o
4415 1 -3 21 4 4028. 2722. 456. o
4416 2 -3 21 4 4031. 2722. 909. o
4416 1 3 21 -4 4031. 2722. 909. o
4417 2 1 21 -4 13991. 13156. 460. o
4417 1 -1 21 4 13991. 13156. 460. o
4418 2 -1 21 4 13974. 13610. 909. o
4418 1 1 21 -4 13974. 13610. 909. o
4419 2 -1 21 -4 13974. 13610. 909. o
4419 1 1 21 4 13974. 13610. 909. o
4420 2 1 21 4 13991. 14517. 905. o
4420 1 -1 21 -4 13991. 14517. 905. o
4421 2 -3 21 -4 4031. 3176. 455. o
4421 1 3 21 4 4031. 3176. 455. o
4422 2 3 21 4 4029. 3176. 908. o
4422 1 -3 21 -4 4029. 3176. 908. o
4423 2 -5 21 -4 1403. 0. 454. <
4423 1 5 21 4 1403. 0. 454. <
4424 2 5 21 4 1403. 907. 907. <
4424 1 -5 21 -4 1403. 907. 907. <
4425 2 -7 21 -4 69. 1361. 907. <
4425 1 7 21 4 69. 1361. 907. <
4426 2 -9 21 -4 310. 454. 1361. <
4426 1 9 21 4 310. 454. 1361. <
4427 3 -4 -22 8 6597. 4990. 1816. o
4427 2 8 22 -4 6597. 4990. 1816. o
4427 1 -8 22 4 6597. 4990. 1816. o
4428 3 4 -22 -8 6594. 6805. 1361. o
4428 2 -8 22 4 6594. 6805. 1361. o
4428 1 8 22 -4 6594. 6805. 1361. o
4429 3 -4 -22 6 721. -454. 907. <
4429 2 6 22 -4 721. -454. 907. <
4429 1 -6 22 4 721. -454. 907. <
4430 3 4 -22 -6 815. 4083. 904. o
4430 2 -6 22 4 815. 4083. 904. o
4430 1 6 22 -4 815. 4083. 904. o
4431 3 4 -22 -4 14552. 13610. 1364. o
4431 2 -4 22 4 14552. 13610. 1364. o
4431 1 4 22 -4 14552. 13610. 1364. o
4432 3 -4 -22 2 5298. 5444. 453. o
4432 2 2 22 -4 5298. 5444. 453. o
4432 1 -2 22 4 5298. 5444. 453. o
4433 3 4 -22 -2 5423. 5898. 452. o
4433 2 -2 22 4 5423. 5898. 452. o
4433 1 2 22 -4 5423. 5898. 452. o
4434 3 -4 -22 0 9625. 3629. 1368. o
4434 2 0 22 -4 9625. 3629. 1368. o
4434 1 0 22 4 9625. 3629. 1368. o
4435 3 4 -22 0 9519. 6805. 1365. o
4435 2 0 22 4 9519. 6805. 1365. o
4435 1 0 22 -4 9519. 6805. 1365. o
4436 3 -4 -22 -2 5399. 5898. 906. o
4436 2 -2 22 -4 5399. 5898. 906. o
4436 1 2 22 4 5399. 5898. 906. o
4437 3 4 -22 2 5322. 5444. 907. o
4437 2 2 22 4 5322. 5444. 907. o
4437 1 -2 22 -4 5322. 5444. 907. o
4438 3 -4 -22 -4 14544. 10888. 1370. o
4438 2 -4 22 -4 14544. 10888. 1370. o
4438 1 4 22 4 14544. 10888. 1370. o
4439 3 -4 -22 -6 758. 2722. 906. o
4439 2 -6 22 -4 758. 2722. 906. o
4439 1 6 22 4 758. 2722. 906. o
4440 3 -4 -22 -8 6587. 8166. 1813. o
4440 2 -8 22 -4 6587. 8166. 1813. o
4440 1 8 22 4 6587. 8166. 1813. o
4441 2 9 23 -4 143. 454. 2722. <
4441 1 -9 23 4 143. 454. 2722. <
4442 2 -9 23 4 143. 454. 454. <
4442 1 9 23 -4 143. 454. 454. <
4443 2 7 23 -4 337. 907. 907. <
4443 1 -7 23 4 337. 907. 907. <
4444 2 -7 23 4 338. 454. 454. <
4444 1 7 23 -4 338. 454. 454. <
4445 2 5 23 -4 416. -454. 1361. <
4445 1 -5 23 4 416. -454. 1361. <
4446 2 -5 23 4 414. -454. 454. <
4446 1 5 23 -4 414. -454. 454. <
4447 2 3 23 -4 2599. 1815. 908. <
4447 1 -3 23 4 2599. 1815. 908. <
4448 2 -3 23 4 2600. 2722. 453. o
4448 1 3 23 -4 2600. 2722. 453. o
4449 2 1 23 -4 5493. 5444. 907. o
4449 1 -1 23 4 5493. 5444. 907. o
4450 2 -1 23 4 5486. 7258. 447. o
4450 1 1 23 -4 5486. 7258. 447. o
4451 2 -1 23 -4 5486. 5898. 907. o
4451 1 1 23 4 5486. 5898. 907. o
4452 2 1 23 4 5493. 5898. 907. o
4452 1 -1 23 -4 5493. 5898. 907. o
4453 2 -3 23 -4 2600. 2268. 454. o
4453 1 3 23 4 2600. 2268. 454. o
4454 2 3 23 4 2599. 1815. 455. o
4454 1 -3 23 -4 2599. 1815. 455. o
4455 2 -5 23 -4 414. 0. 454. <
4455 1 5 23 4 414. 0. 454. <
4456 2 5 23 4 416. 454. 907. <
4456 1 -5 23 -4 416. 454. 907. <
4457 2 -7 23 -4 338. 907. 907. <
4457 1 7 23 4 338. 907. 907. <
4458 2 -9 23 -4 143. 454. 907. <
4458 1 9 23 4 143. 454. 907. <
4459 3 -4 -24 8 54328. 32663. 2805. o
4459 2 8 24 -4 54328. 32663. 2805. o
4459 1 -8 24 4 54328. 32663. 2805. o
4460 3 4 -24 -8 53960. 61244. 2217. o
4460 2 -8 24 4 53960. 61244. 2217. o
4460 1 8 24 -4 53960. 61244. 2217. o
4461 3 -4 -24 6 21369. 12702. 1834. o
4461 2 6 24 -4 21369. 12702. 1834. o
4461 1 -6 24 4 21369. 12702. 1834. o
4462 3 4 -24 -6 22419. 28580. 1329. o
4462 2 -6 24 4 22419. 28580. 1329. o
4462 1 6 24 -4 22419. 28580. 1329. o
4463 3 -4 -24 4 854369. 936799. 18211. o
4463 2 4 24 -4 854369. 936799. 18211. o
4463 1 -4 24 4 854369. 936799. 18211. o
4464 3 4 -24 -4 853884. 891434. 17802. o
4464 2 -4 24 4 853884. 891434. 17802. o
4464 1 4 24 -4 853884. 891434. 17802. o
4465 3 -4 -24 2 142540. 136097. 1526. o
4465 2 2 24 -4 142540. 136097. 1526. o
4465 1 -2 24 4 142540. 136097. 1526. o
4466 3 4 -24 -2 144914. 146077. 1790. o
4466 2 -2 24 4 144914. 146077. 1790. o
4466 1 2 24 -4 144914. 146077. 1790. o
4467 3 -4 -24 -2 143609. 150614. 1655. o
4467 2 -2 24 -4 143609. 150614. 1655. o
4467 1 2 24 4 143609. 150614. 1655. o
4468 3 4 -24 2 143845. 128385. 1387. o
4468 2 2 24 4 143845. 128385. 1387. o
4468 1 -2 24 -4 143845. 128385. 1387. o
4469 3 -4 -24 -4 854113. 996682. 18595. o
4469 2 -4 24 -4 854113. 996682. 18595. o
4469 1 4 24 4 854113. 996682. 18595. o
4470 3 -4 -24 -6 21864. 21322. 911. o
4470 2 -6 24 -4 21864. 21322. 911. o
4470 1 6 24 4 21864. 21322. 911. o
4471 3 -4 -24 -8 54207. 39922. 2342. o
4471 2 -8 24 -4 54207. 39922. 2342. o
4471 1 8 24 4 54207. 39922. 2342. o
4472 2 9 25 -4 27. 6351. 2719. o
4472 1 -9 25 4 27. 6351. 2719. o
4473 2 -9 25 4 27. -454. 454. <
4473 1 9 25 -4 27. -454. 454. <
4474 2 7 25 -4 11. 0. 907. <
4474 1 -7 25 4 11. 0. 907. <
4475 2 -7 25 4 11. -907. 453. <
4475 1 7 25 -4 11. -907. 453. <
4476 2 5 25 -4 214. 907. 907. <
4476 1 -5 25 4 214. 907. 907. <
4477 2 -5 25 4 214. 0. 454. <
4477 1 5 25 -4 214. 0. 454. <
4478 2 3 25 -4 1336. 1361. 907. <
4478 1 -3 25 4 1336. 1361. 907. <
4479 2 -3 25 4 1333. 2268. 453. o
4479 1 3 25 -4 1333. 2268. 453. o
4480 2 1 25 -4 4807. 3629. 909. o
4480 1 -1 25 4 4807. 3629. 909. o
4481 2 -1 25 4 4807. 4990. 453. o
4481 1 1 25 -4 4807. 4990. 453. o
4482 2 -1 25 -4 4807. 4990. 907. o
4482 1 1 25 4 4807. 4990. 907. o
4483 2 1 25 4 4807. 4537. 908. o
4483 1 -1 25 -4 4807. 4537. 908. o
4484 2 -3 25 -4 1332. 2268. 453. o
4484 1 3 25 4 1332. 2268. 453. o
4485 2 3 25 4 1336. 1815. 453. o
4485 1 -3 25 -4 1336. 1815. 453. o
4486 2 -5 25 -4 214. 907. 453. <
4486 1 5 25 4 214. 907. 453. <
4487 2 5 25 4 214. 0. 1361. <
4487 1 -5 25 -4 214. 0. 1361. <
4488 2 -7 25 -4 11. 1361. 907. <
4488 1 7 25 4 11. 1361. 907. <
4489 2 -9 25 -4 27. 0. 907. <
4489 1 9 25 4 27. 0. 907. <
4490 3 -4 -26 8 15281. 19054. 2260. o
4490 2 8 26 -4 15281. 19054. 2260. o
4490 1 -8 26 4 15281. 19054. 2260. o
4491 3 4 -26 -8 15199. 17693. 895. o
4491 2 -8 26 4 15199. 17693. 895. o
4491 1 8 26 -4 15199. 17693. 895. o
4492 3 -4 -26 6 3295. 907. 1362. <
4492 2 6 26 -4 3295. 907. 1362. <
4492 1 -6 26 4 3295. 907. 1362. <
4493 3 4 -26 -6 3590. 4083. 453. o
4493 2 -6 26 4 3590. 4083. 453. o
4493 1 6 26 -4 3590. 4083. 453. o
4494 3 -4 -26 4 161252. 135643. 3062. o
4494 2 4 26 -4 161252. 135643. 3062. o
4494 1 -4 26 4 161252. 135643. 3062. o
4495 3 4 -26 -4 161285. 164223. 2211. o
4495 2 -4 26 4 161285. 164223. 2211. o
4495 1 4 26 -4 161285. 164223. 2211. o
4496 3 -4 -26 2 18588. 15878. 921. o
4496 2 2 26 -4 18588. 15878. 921. o
4496 1 -2 26 4 18588. 15878. 921. o
4497 3 4 -26 -2 19291. 18600. 911. o
4497 2 -2 26 4 19291. 18600. 911. o
4497 1 2 26 -4 19291. 18600. 911. o
4498 3 -4 -26 0 442984. 431880. 3160. o
4498 2 0 26 -4 442984. 431880. 3160. o
4498 1 0 26 4 442984. 431880. 3160. o
4499 3 4 -26 0 443130. 445944. 1620. o
4499 2 0 26 4 443130. 445944. 1620. o
4499 1 0 26 -4 443130. 445944. 1620. o
4500 3 -4 -26 -2 18928. 14971. 926. o
4500 2 -2 26 -4 18928. 14971. 926. o
4500 1 2 26 4 18928. 14971. 926. o
4501 3 4 -26 2 18951. 14517. 928. o
4501 2 2 26 4 18951. 14517. 928. o
4501 1 -2 26 -4 18951. 14517. 928. o
4502 3 -4 -26 -4 161270. 174204. 2497. o
4502 2 -4 26 -4 161270. 174204. 2497. o
4502 1 4 26 4 161270. 174204. 2497. o
4503 3 4 -26 4 161268. 101165. 3005. o
4503 2 4 26 4 161268. 101165. 3005. o
4503 1 -4 26 -4 161268. 101165. 3005. o
4504 3 -4 -26 -6 3440. 4083. 907. o
4504 2 -6 26 -4 3440. 4083. 907. o
4504 1 6 26 4 3440. 4083. 907. o
4505 3 4 -26 6 3445. 3176. 1815. <
4505 2 6 26 4 3445. 3176. 1815. <
4505 1 -6 26 -4 3445. 3176. 1815. <
4506 3 -4 -26 -8 15244. 19054. 2260. o
4506 2 -8 26 -4 15244. 19054. 2260. o
4506 1 8 26 4 15244. 19054. 2260. o
4507 2 9 27 -4 66. 454. 3629. <
4507 1 -9 27 4 66. 454. 3629. <
4508 2 -9 27 4 66. 454. 454. <
4508 1 9 27 -4 66. 454. 454. <
4509 2 7 27 -4 348. 2268. 1360. <
4509 1 -7 27 4 348. 2268. 1360. <
4510 2 -7 27 4 347. 454. 454. <
4510 1 7 27 -4 347. 454. 454. <
4511 2 5 27 -4 375. 1815. 1361. <
4511 1 -5 27 4 375. 1815. 1361. <
4512 2 -5 27 4 376. 454. 907. <
4512 1 5 27 -4 376. 454. 907. <
4513 2 3 27 -4 3195. 2268. 455. o
4513 1 -3 27 4 3195. 2268. 455. o
4514 2 -3 27 4 3191. 2722. 454. o
4514 1 3 27 -4 3191. 2722. 454. o
4515 2 1 27 -4 2468. 3629. 451. o
4515 1 -1 27 4 2468. 3629. 451. o
4516 2 -1 27 4 2462. 3629. 451. o
4516 1 1 27 -4 2462. 3629. 451. o
4517 2 -1 27 -4 2462. 3629. 451. o
4517 1 1 27 4 2462. 3629. 451. o
4518 2 1 27 4 2468. 2722. 453. o
4518 1 -1 27 -4 2468. 2722. 453. o
4519 2 -3 27 -4 3191. 3176. 454. o
4519 1 3 27 4 3191. 3176. 454. o
4520 2 3 27 4 3195. 2722. 454. o
4520 1 -3 27 -4 3195. 2722. 454. o
4521 2 -5 27 -4 376. 907. 453. <
4521 1 5 27 4 376. 907. 453. <
4522 2 5 27 4 375. 0. 1361. <
4522 1 -5 27 -4 375. 0. 1361. <
4523 2 -7 27 -4 347. 454. 907. <
4523 1 7 27 4 347. 454. 907. <
4524 2 -9 27 -4 66. 1361. 907. <
4524 1 9 27 4 66. 1361. 907. <
4525 3 -4 -28 8 3442. 454. 1815. <
4525 2 8 28 -4 3442. 454. 1815. <
4525 1 -8 28 4 3442. 454. 1815. <
4526 3 4 -28 -8 3418. 1815. 456. o
4526 2 -8 28 4 3418. 1815. 456. o
4526 1 8 28 -4 3418. 1815. 456. o
4527 3 -4 -28 6 384. 454. 907. <
4527 2 6 28 -4 384. 454. 907. <
4527 1 -6 28 4 384. 454. 907. <
4528 3 4 -28 -6 402. 907. 453. <
4528 2 -6 28 4 402. 907. 453. <
4528 1 6 28 -4 402. 907. 453. <
4529 3 -4 -28 4 30838. 14063. 1424. o
4529 2 4 28 -4 30838. 14063. 1424. o
4529 1 -4 28 4 30838. 14063. 1424. o
4530 3 4 -28 -4 30842. 32663. 890. o
4530 2 -4 28 4 30842. 32663. 890. o
4530 1 4 28 -4 30842. 32663. 890. o
4531 3 -4 -28 2 3887. 4083. 907. o
4531 2 2 28 -4 3887. 4083. 907. o
4531 1 -2 28 4 3887. 4083. 907. o
4532 3 4 -28 -2 3946. 4083. 453. o
4532 2 -2 28 4 3946. 4083. 453. o
4532 1 2 28 -4 3946. 4083. 453. o
4533 3 -4 -28 0 89001. 80751. 1490. o
4533 2 0 28 -4 89001. 80751. 1490. o
4533 1 0 28 4 89001. 80751. 1490. o
4534 3 4 -28 0 89177. 78029. 1144. o
4534 2 0 28 4 89177. 78029. 1144. o
4534 1 0 28 -4 89177. 78029. 1144. o
4535 3 -4 -28 -2 3910. 4083. 453. o
4535 2 -2 28 -4 3910. 4083. 453. o
4535 1 2 28 4 3910. 4083. 453. o
4536 3 4 -28 2 3922. 2722. 456. o
4536 2 2 28 4 3922. 2722. 456. o
4536 1 -2 28 -4 3922. 2722. 456. o
4537 3 -4 -28 -4 30840. 28580. 1374. o
4537 2 -4 28 -4 30840. 28580. 1374. o
4537 1 4 28 4 30840. 28580. 1374. o
4538 3 -4 -28 -6 388. 1361. 907. <
4538 2 -6 28 -4 388. 1361. 907. <
4538 1 6 28 4 388. 1361. 907. <
4539 3 4 -28 6 398. 907. 1361. <
4539 2 6 28 4 398. 907. 1361. <
4539 1 -6 28 -4 398. 907. 1361. <
4540 3 -4 -28 -8 3440. 1361. 2269. <
4540 2 -8 28 -4 3440. 1361. 2269. <
4540 1 8 28 4 3440. 1361. 2269. <
4541 2 9 29 -4 76. 2268. 3629. <
4541 1 -9 29 4 76. 2268. 3629. <
4542 2 -9 29 4 75. 454. 907. <
4542 1 9 29 -4 75. 454. 907. <
4543 2 7 29 -4 1127. -2268. 1360. <
4543 1 -7 29 4 1127. -2268. 1360. <
4544 2 -7 29 4 1134. 907. 454. <
4544 1 7 29 -4 1134. 907. 454. <
4545 2 5 29 -4 74. -1361. 1361. <
4545 1 -5 29 4 74. -1361. 1361. <
4546 2 -5 29 4 71. 0. 907. <
4546 1 5 29 -4 71. 0. 907. <
4547 2 3 29 -4 9694. 9527. 908. o
4547 1 -3 29 4 9694. 9527. 908. o
4548 2 -3 29 4 9729. 25858. 1295. o
4548 1 3 29 -4 9729. 25858. 1295. o
4549 2 1 29 -4 1930. 2722. 907. o
4549 1 -1 29 4 1930. 2722. 907. o
4550 2 -1 29 4 1930. 3629. 906. o
4550 1 1 29 -4 1930. 3629. 906. o
4551 2 -1 29 -4 1930. 3176. 906. o
4551 1 1 29 4 1930. 3176. 906. o
4552 2 1 29 4 1930. 4083. 905. o
4552 1 -1 29 -4 1930. 4083. 905. o
4553 2 -3 29 -4 9729. 12702. 897. o
4553 1 3 29 4 9729. 12702. 897. o
4554 2 3 29 4 9694. 9527. 908. o
4554 1 -3 29 -4 9694. 9527. 908. o
4555 2 -5 29 -4 71. 907. 453. <
4555 1 5 29 4 71. 907. 453. <
4556 2 5 29 4 74. -454. 1361. <
4556 1 -5 29 -4 74. -454. 1361. <
4557 2 -7 29 -4 1134. 1361. 907. <
4557 1 7 29 4 1134. 1361. 907. <
4558 2 -9 29 -4 75. 454. 1361. <
4558 1 9 29 4 75. 454. 1361. <
4559 3 -4 -30 8 1572. 1361. 2268. <
4559 2 8 30 -4 1572. 1361. 2268. <
4559 1 -8 30 4 1572. 1361. 2268. <
4560 3 4 -30 -8 1554. 1361. 907. <
4560 2 -8 30 4 1554. 1361. 907. <
4560 1 8 30 -4 1554. 1361. 907. <
4561 3 -4 -30 6 824. 3629. 1359. o
4561 2 6 30 -4 824. 3629. 1359. o
4561 1 -6 30 4 824. 3629. 1359. o
4562 3 4 -30 -6 847. 907. 454. <
4562 2 -6 30 4 847. 907. 454. <
4562 1 6 30 -4 847. 907. 454. <
4563 3 -4 -30 4 14891. 9527. 1373. o
4563 2 4 30 -4 14891. 9527. 1373. o
4563 1 -4 30 4 14891. 9527. 1373. o
4564 3 4 -30 -4 14768. 13610. 912. o
4564 2 -4 30 4 14768. 13610. 912. o
4564 1 4 30 -4 14768. 13610. 912. o
4565 3 -4 -30 2 3715. 2268. 908. o
4565 2 2 30 -4 3715. 2268. 908. o
4565 1 -2 30 4 3715. 2268. 908. o
4566 3 4 -30 -2 3770. 2722. 456. o
4566 2 -2 30 4 3770. 2722. 456. o
4566 1 2 30 -4 3770. 2722. 456. o
4567 3 -4 -30 0 35286. 33117. 929. o
4567 2 0 30 -4 35286. 33117. 929. o
4567 1 0 30 4 35286. 33117. 929. o
4568 3 4 -30 0 35192. 35839. 901. o
4568 2 0 30 4 35192. 35839. 901. o
4568 1 0 30 -4 35192. 35839. 901. o
4569 3 -4 -30 -2 3716. 2722. 455. o
4569 2 -2 30 -4 3716. 2722. 455. o
4569 1 2 30 4 3716. 2722. 455. o
4570 3 -4 -30 -4 14826. 13156. 914. o
4570 2 -4 30 -4 14826. 13156. 914. o
4570 1 4 30 4 14826. 13156. 914. o
4571 3 -4 -30 -6 845. 2722. 906. o
4571 2 -6 30 -4 845. 2722. 906. o
4571 1 6 30 4 845. 2722. 906. o
4572 3 4 -30 6 827. 0. 1361. <
4572 2 6 30 4 827. 0. 1361. <
4572 1 -6 30 -4 827. 0. 1361. <
4573 3 -4 -30 -8 1562. 0. 2268. <
4573 2 -8 30 -4 1562. 0. 2268. <
4573 1 8 30 4 1562. 0. 2268. <
4574 2 9 31 -4 372. 3629. 4082. <
4574 1 -9 31 4 372. 3629. 4082. <
4575 2 -9 31 4 373. 907. 907. <
4575 1 9 31 -4 373. 907. 907. <
4576 2 7 31 -4 2724. 2722. 1361. <
4576 1 -7 31 4 2724. 2722. 1361. <
4577 2 -7 31 4 2717. 2722. 454. o
4577 1 7 31 -4 2717. 2722. 454. o
4578 2 5 31 -4 1840. 3629. 1360. o
4578 1 -5 31 4 1840. 3629. 1360. o
4579 2 -5 31 4 1841. -907. 454. <
4579 1 5 31 -4 1841. -907. 454. <
4580 2 -3 31 4 63840. 78936. 1642. o
4580 1 3 31 -4 63840. 78936. 1642. o
4581 2 1 31 -4 94699. 90731. 1868. o
4581 1 -1 31 4 94699. 90731. 1868. o
4582 2 -1 31 4 94690. 93453. 1832. o
4582 1 1 31 -4 94690. 93453. 1832. o
4583 2 -1 31 -4 94690. 95268. 891. o
4583 1 1 31 4 94690. 95268. 891. o
4584 2 1 31 4 94699. 92999. 1838. o
4584 1 -1 31 -4 94699. 92999. 1838. o
4585 2 -3 31 -4 63840. 65326. 1342. o
4585 1 3 31 4 63840. 65326. 1342. o
4586 2 3 31 4 63876. 59883. 977. o
4586 1 -3 31 -4 63876. 59883. 977. o
4587 2 -5 31 -4 1841. 454. 908. <
4587 1 5 31 4 1841. 454. 908. <
4588 2 5 31 4 1840. 454. 1361. <
4588 1 -5 31 -4 1840. 454. 1361. <
4589 2 -7 31 -4 2717. 3629. 906. o
4589 1 7 31 4 2717. 3629. 906. o
4590 2 -9 31 -4 373. 907. 1361. <
4590 1 9 31 4 373. 907. 1361. <
4591 3 -4 -32 8 1549. 1815. 2268. <
4591 2 8 32 -4 1549. 1815. 2268. <
4591 1 -8 32 4 1549. 1815. 2268. <
4592 3 4 -32 -8 1563. 454. 908. <
4592 2 -8 32 4 1563. 454. 908. <
4592 1 8 32 -4 1563. 454. 908. <
4593 3 -4 -32 6 1020. 2268. 1361. <
4593 2 6 32 -4 1020. 2268. 1361. <
4593 1 -6 32 4 1020. 2268. 1361. <
4594 3 4 -32 -6 981. 907. 454. <
4594 2 -6 32 4 981. 907. 454. <
4594 1 6 32 -4 981. 907. 454. <
4595 3 4 -32 -4 5717. 5444. 908. o
4595 2 -4 32 4 5717. 5444. 908. o
4595 1 4 32 -4 5717. 5444. 908. o
4596 3 -4 -32 2 3916. 3629. 454. o
4596 2 2 32 -4 3916. 3629. 454. o
4596 1 -2 32 4 3916. 3629. 454. o
4597 3 4 -32 -2 3821. 4083. 907. o
4597 2 -2 32 4 3821. 4083. 907. o
4597 1 2 32 -4 3821. 4083. 907. o
4598 3 -4 -32 0 13052. 12702. 909. o
4598 2 0 32 -4 13052. 12702. 909. o
4598 1 0 32 4 13052. 12702. 909. o
4599 3 4 -32 0 13118. 10434. 471. o
4599 2 0 32 4 13118. 10434. 471. o
4599 1 0 32 -4 13118. 10434. 471. o
4600 3 -4 -32 -2 3871. 4083. 453. o
4600 2 -2 32 -4 3871. 4083. 453. o
4600 1 2 32 4 3871. 4083. 453. o
4601 3 -4 -32 -4 5695. 5444. 908. o
4601 2 -4 32 -4 5695. 5444. 908. o
4601 1 4 32 4 5695. 5444. 908. o
4602 3 -4 -32 -6 997. 1361. 907. <
4602 2 -6 32 -4 997. 1361. 907. <
4602 1 6 32 4 997. 1361. 907. <
4603 3 4 -32 6 1004. 454. 1361. <
4603 2 6 32 4 1004. 454. 1361. <
4603 1 -6 32 -4 1004. 454. 1361. <
4604 3 -4 -32 -8 1559. 2268. 1814. <
4604 2 -8 32 -4 1559. 2268. 1814. <
4604 1 8 32 4 1559. 2268. 1814. <
4605 2 9 33 -4 200. 3176. 4082. <
4605 1 -9 33 4 200. 3176. 4082. <
4606 2 -9 33 4 200. -454. 907. <
4606 1 9 33 -4 200. -454. 907. <
4607 2 7 33 -4 196. 454. 1361. <
4607 1 -7 33 4 196. 454. 1361. <
4608 2 -7 33 4 194. 0. 454. <
4608 1 7 33 -4 194. 0. 454. <
4609 2 5 33 -4 164. 907. 907. <
4609 1 -5 33 4 164. 907. 907. <
4610 2 -5 33 4 161. 454. 907. <
4610 1 5 33 -4 161. 454. 907. <
4611 2 -3 33 4 408. 1361. 1361. <
4611 1 3 33 -4 408. 1361. 1361. <
4612 2 1 33 -4 3263. 2722. 908. o
4612 1 -1 33 4 3263. 2722. 908. o
4613 2 -1 33 4 3257. 4083. 906. o
4613 1 1 33 -4 3257. 4083. 906. o
4614 2 -1 33 -4 3257. 3629. 453. o
4614 1 1 33 4 3257. 3629. 453. o
4615 2 1 33 4 3263. 3629. 907. o
4615 1 -1 33 -4 3263. 3629. 907. o
4616 2 -3 33 -4 408. 1361. 1361. <
4616 1 3 33 4 408. 1361. 1361. <
4617 2 3 33 4 406. 1815. 907. <
4617 1 -3 33 -4 406. 1815. 907. <
4618 2 -5 33 -4 161. 454. 907. <
4618 1 5 33 4 161. 454. 907. <
4619 2 5 33 4 164. 907. 1361. <
4619 1 -5 33 -4 164. 907. 1361. <
4620 2 -7 33 -4 194. 2268. 906. o
4620 1 7 33 4 194. 2268. 906. o
4621 2 -9 33 -4 200. -907. 1361. <
4621 1 9 33 4 200. -907. 1361. <
4622 3 -4 -34 8 2235. 1361. 2268. <
4622 2 8 34 -4 2235. 1361. 2268. <
4622 1 -8 34 4 2235. 1361. 2268. <
4623 3 4 -34 -8 2225. 2722. 907. o
4623 2 -8 34 4 2225. 2722. 907. o
4623 1 8 34 -4 2225. 2722. 907. o
4624 3 -4 -34 6 863. -454. 907. <
4624 2 6 34 -4 863. -454. 907. <
4624 1 -6 34 4 863. -454. 907. <
4625 3 4 -34 -6 847. 454. 454. <
4625 2 -6 34 4 847. 454. 454. <
4625 1 6 34 -4 847. 454. 454. <
4626 3 4 -34 -4 3826. -2268. 907. <
4626 2 -4 34 4 3826. -2268. 907. <
4626 1 4 34 -4 3826. -2268. 907. <
4627 3 -4 -34 2 1374. 0. 454. <
4627 2 2 34 -4 1374. 0. 454. <
4627 1 -2 34 4 1374. 0. 454. <
4628 3 4 -34 -2 1415. -907. 453. <
4628 2 -2 34 4 1415. -907. 453. <
4628 1 2 34 -4 1415. -907. 453. <
4629 3 -4 -34 0 984. 1361. 907. <
4629 2 0 34 -4 984. 1361. 907. <
4629 1 0 34 4 984. 1361. 907. <
4630 3 4 -34 0 1028. -454. 454. <
4630 2 0 34 4 1028. -454. 454. <
4630 1 0 34 -4 1028. -454. 454. <
4631 3 -4 -34 -2 1380. 907. 454. <
4631 2 -2 34 -4 1380. 907. 454. <
4631 1 2 34 4 1380. 907. 454. <
4632 3 4 -34 2 1409. 907. 907. <
4632 2 2 34 4 1409. 907. 907. <
4632 1 -2 34 -4 1409. 907. 907. <
4633 3 -4 -34 -4 3839. 2722. 908. o
4633 2 -4 34 -4 3839. 2722. 908. o
4633 1 4 34 4 3839. 2722. 908. o
4634 3 -4 -34 -6 858. 907. 907. <
4634 2 -6 34 -4 858. 907. 907. <
4634 1 6 34 4 858. 907. 907. <
4635 3 4 -34 6 852. -907. 1361. <
4635 2 6 34 4 852. -907. 1361. <
4635 1 -6 34 -4 852. -907. 1361. <
4636 3 -4 -34 -8 2234. 1361. 1815. <
4636 2 -8 34 -4 2234. 1361. 1815. <
4636 1 8 34 4 2234. 1361. 1815. <
4637 2 9 35 -4 76. 1361. 3629. <
4637 1 -9 35 4 76. 1361. 3629. <
4638 2 -9 35 4 76. 454. 907. <
4638 1 9 35 -4 76. 454. 907. <
4639 2 7 35 -4 344. -454. 1361. <
4639 1 -7 35 4 344. -454. 1361. <
4640 2 -7 35 4 344. 454. 907. <
4640 1 7 35 -4 344. 454. 907. <
4641 2 5 35 -4 96. -1361. 1361. <
4641 1 -5 35 4 96. -1361. 1361. <
4642 2 -5 35 4 96. 454. 907. <
4642 1 5 35 -4 96. 454. 907. <
4643 2 3 35 -4 351. 907. 907. <
4643 1 -3 35 4 351. 907. 907. <
4644 2 -3 35 4 353. -454. 907. <
4644 1 3 35 -4 353. -454. 907. <
4645 2 1 35 -4 859. 907. 907. <
4645 1 -1 35 4 859. 907. 907. <
4646 2 -1 35 4 860. 907. 454. <
4646 1 1 35 -4 860. 907. 454. <
4647 2 -1 35 -4 860. 1361. 453. o
4647 1 1 35 4 860. 1361. 453. o
4648 2 1 35 4 859. 454. 907. <
4648 1 -1 35 -4 859. 454. 907. <
4649 2 -3 35 -4 353. -907. 907. <
4649 1 3 35 4 353. -907. 907. <
4650 2 3 35 4 351. 1815. 907. <
4650 1 -3 35 -4 351. 1815. 907. <
4651 2 -5 35 -4 96. 0. 907. <
4651 1 5 35 4 96. 0. 907. <
4652 2 5 35 4 96. 1815. 1361. <
4652 1 -5 35 -4 96. 1815. 1361. <
4653 2 -7 35 -4 344. 1815. 907. <
4653 1 7 35 4 344. 1815. 907. <
4654 2 -9 35 -4 76. -907. 1361. <
4654 1 9 35 4 76. -907. 1361. <
4655 3 -4 -36 8 22482. 12702. 2737. o
4655 2 8 36 -4 22482. 12702. 2737. o
4655 1 -8 36 4 22482. 12702. 2737. o
4656 3 4 -36 -8 22309. 19961. 1370. o
4656 2 -8 36 4 22309. 19961. 1370. o
4656 1 8 36 -4 22309. 19961. 1370. o
4657 3 -4 -36 6 18831. 8166. 1833. o
4657 2 6 36 -4 18831. 8166. 1833. o
4657 1 -6 36 4 18831. 8166. 1833. o
4658 3 4 -36 -6 18986. 22229. 887. o
4658 2 -6 36 4 18986. 22229. 887. o
4658 1 6 36 -4 18986. 22229. 887. o
4659 3 4 -36 -4 235537. 276730. 5477. o
4659 2 -4 36 4 235537. 276730. 5477. o
4659 1 4 36 -4 235537. 276730. 5477. o
4660 3 -4 -36 2 57174. 63058. 1289. o
4660 2 2 36 -4 57174. 63058. 1289. o
4660 1 -2 36 4 57174. 63058. 1289. o
4661 3 4 -36 -2 56975. 58068. 1349. o
4661 2 -2 36 4 56975. 58068. 1349. o
4661 1 2 36 -4 56975. 58068. 1349. o
4662 3 -4 -36 0 515708. 530324. 1024. o
4662 2 0 36 -4 515708. 530324. 1024. o
4662 1 0 36 4 515708. 530324. 1024. o
4663 3 4 -36 0 515057. 524880. 1553. o
4663 2 0 36 4 515057. 524880. 1553. o
4663 1 0 36 -4 515057. 524880. 1553. o
4664 3 -4 -36 -2 57104. 58522. 1802. o
4664 2 -2 36 -4 57104. 58522. 1802. o
4664 1 2 36 4 57104. 58522. 1802. o
4665 3 4 -36 2 57045. 47180. 1455. o
4665 2 2 36 4 57045. 47180. 1455. o
4665 1 -2 36 -4 57045. 47180. 1455. o
4666 3 -4 -36 -4 235960. 294876. 1198. o
4666 2 -4 36 -4 235960. 294876. 1198. o
4666 1 4 36 4 235960. 294876. 1198. o
4667 3 -4 -36 -6 18902. 16332. 920. o
4667 2 -6 36 -4 18902. 16332. 920. o
4667 1 6 36 4 18902. 16332. 920. o
4668 3 -4 -36 -8 22420. 17693. 2279. o
4668 2 -8 36 -4 22420. 17693. 2279. o
4668 1 8 36 4 22420. 17693. 2279. o
4669 2 7 37 -4 28. 907. 1361. <
4669 1 -7 37 4 28. 907. 1361. <
4670 2 -7 37 4 28. 1361. 907. <
4670 1 7 37 -4 28. 1361. 907. <
4671 2 5 37 -4 235. -1361. 1361. <
4671 1 -5 37 4 235. -1361. 1361. <
4672 2 -5 37 4 236. 907. 453. <
4672 1 5 37 -4 236. 907. 453. <
4673 2 3 37 -4 263. 454. 1361. <
4673 1 -3 37 4 263. 454. 1361. <
4674 2 -3 37 4 263. 907. 907. <
4674 1 3 37 -4 263. 907. 907. <
4675 2 1 37 -4 1498. -907. 907. <
4675 1 -1 37 4 1498. -907. 907. <
4676 2 -1 37 4 1499. 454. 454. <
4676 1 1 37 -4 1499. 454. 454. <
4677 2 -1 37 -4 1499. 907. 454. <
4677 1 1 37 4 1499. 907. 454. <
4678 2 1 37 4 1498. 2268. 907. o
4678 1 -1 37 -4 1498. 2268. 907. o
4679 2 -3 37 -4 263. -454. 907. <
4679 1 3 37 4 263. -454. 907. <
4680 2 3 37 4 263. 0. 907. <
4680 1 -3 37 -4 263. 0. 907. <
4681 2 -5 37 -4 236. 1815. 907. <
4681 1 5 37 4 236. 1815. 907. <
4682 2 5 37 4 235. 454. 1361. <
4682 1 -5 37 -4 235. 454. 1361. <
4683 2 -7 37 -4 28. 454. 1361. <
4683 1 7 37 4 28. 454. 1361. <
4684 3 -4 -38 8 7908. 9527. 2721. o
4684 2 8 38 -4 7908. 9527. 2721. o
4684 1 -8 38 4 7908. 9527. 2721. o
4685 3 4 -38 -8 7848. 9980. 901. o
4685 2 -8 38 4 7848. 9980. 901. o
4685 1 8 38 -4 7848. 9980. 901. o
4686 3 -4 -38 6 3660. 2268. 1815. <
4686 2 6 38 -4 3660. 2268. 1815. <
4686 1 -6 38 4 3660. 2268. 1815. <
4687 3 4 -38 -6 3693. 5898. 904. o
4687 2 -6 38 4 3693. 5898. 904. o
4687 1 6 38 -4 3693. 5898. 904. o
4688 3 -4 -38 4 60079. 42190. 1937. o
4688 2 4 38 -4 60079. 42190. 1937. o
4688 1 -4 38 4 60079. 42190. 1937. o
4689 3 4 -38 -4 59708. 61244. 1801. o
4689 2 -4 38 4 59708. 61244. 1801. o
4689 1 4 38 -4 59708. 61244. 1801. o
4690 3 -4 -38 2 3791. 2722. 1362. <
4690 2 2 38 -4 3791. 2722. 1362. <
4690 1 -2 38 4 3791. 2722. 1362. <
4691 3 4 -38 -2 3498. 3176. 908. o
4691 2 -2 38 4 3498. 3176. 908. o
4691 1 2 38 -4 3498. 3176. 908. o
4692 3 -4 -38 0 101356. 100258. 1382. o
4692 2 0 38 -4 101356. 100258. 1382. o
4692 1 0 38 4 101356. 100258. 1382. o
4693 3 4 -38 0 101025. 108877. 1186. o
4693 2 0 38 4 101025. 108877. 1186. o
4693 1 0 38 -4 101025. 108877. 1186. o
4694 3 -4 -38 -2 3676. 3176. 908. o
4694 2 -2 38 -4 3676. 3176. 908. o
4694 1 2 38 4 3676. 3176. 908. o
4695 3 4 -38 2 3613. 3629. 1361. o
4695 2 2 38 4 3613. 3629. 1361. o
4695 1 -2 38 -4 3613. 3629. 1361. o
4696 3 -4 -38 -4 59883. 64419. 1772. o
4696 2 -4 38 -4 59883. 64419. 1772. o
4696 1 4 38 4 59883. 64419. 1772. o
4697 3 -4 -38 -6 3668. 5898. 904. o
4697 2 -6 38 -4 3668. 5898. 904. o
4697 1 6 38 4 3668. 5898. 904. o
4698 3 -4 -38 -8 7883. 9527. 1812. o
4698 2 -8 38 -4 7883. 9527. 1812. o
4698 1 8 38 4 7883. 9527. 1812. o
4699 2 7 39 -4 54. 454. 1361. <
4699 1 -7 39 4 54. 454. 1361. <
4700 2 -7 39 4 53. -907. 907. <
4700 1 7 39 -4 53. -907. 907. <
4701 2 5 39 -4 621. 0. 907. <
4701 1 -5 39 4 621. 0. 907. <
4702 2 -5 39 4 622. 907. 454. <
4702 1 5 39 -4 622. 907. 454. <
4703 2 3 39 -4 6. 0. 907. <
4703 1 -3 39 4 6. 0. 907. <
4704 2 -3 39 4 6. 1361. 907. <
4704 1 3 39 -4 6. 1361. 907. <
4705 2 1 39 -4 1041. 0. 907. <
4705 1 -1 39 4 1041. 0. 907. <
4706 2 -1 39 4 1038. 454. 454. <
4706 1 1 39 -4 1038. 454. 454. <
4707 2 -1 39 -4 1038. 454. 454. <
4707 1 1 39 4 1038. 454. 454. <
4708 2 1 39 4 1041. 907. 907. <
4708 1 -1 39 -4 1041. 907. 907. <
4709 2 -3 39 -4 6. -907. 907. <
4709 1 3 39 4 6. -907. 907. <
4710 2 3 39 4 6. 1361. 1361. <
4710 1 -3 39 -4 6. 1361. 1361. <
4711 2 -5 39 -4 622. 454. 454. <
4711 1 5 39 4 622. 454. 454. <
4712 2 5 39 4 621. 907. 1361. <
4712 1 -5 39 -4 621. 907. 1361. <
4713 2 -7 39 -4 53. 907. 1361. <
4713 1 7 39 4 53. 907. 1361. <
4714 3 -4 -40 8 1222. 907. 2268. <
4714 2 8 40 -4 1222. 907. 2268. <
4714 1 -8 40 4 1222. 907. 2268. <
4715 3 4 -40 -8 1217. 454. 907. <
4715 2 -8 40 4 1217. 454. 907. <
4715 1 8 40 -4 1217. 454. 907. <
4716 3 -4 -40 6 899. 907. 907. <
4716 2 6 40 -4 899. 907. 907. <
4716 1 -6 40 4 899. 907. 907. <
4717 3 4 -40 -6 915. 907. 907. <
4717 2 -6 40 4 915. 907. 907. <
4717 1 6 40 -4 915. 907. 907. <
4718 3 -4 -40 4 7978. 8166. 907. o
4718 2 4 40 -4 7978. 8166. 907. o
4718 1 -4 40 4 7978. 8166. 907. o
4719 3 4 -40 -4 7969. 6805. 910. o
4719 2 -4 40 4 7969. 6805. 910. o
4719 1 4 40 -4 7969. 6805. 910. o
4720 3 -4 -40 2 3833. 4083. 907. o
4720 2 2 40 -4 3833. 4083. 907. o
4720 1 -2 40 4 3833. 4083. 907. o
4721 3 4 -40 -2 3800. 4083. 453. o
4721 2 -2 40 4 3800. 4083. 453. o
4721 1 2 40 -4 3800. 4083. 453. o
4722 3 -4 -40 0 17109. 19054. 1354. o
4722 2 0 40 -4 17109. 19054. 1354. o
4722 1 0 40 4 17109. 19054. 1354. o
4723 3 4 -40 0 17072. 17239. 906. o
4723 2 0 40 4 17072. 17239. 906. o
4723 1 0 40 -4 17072. 17239. 906. o
4724 3 -4 -40 -2 3834. 4537. 906. o
4724 2 -2 40 -4 3834. 4537. 906. o
4724 1 2 40 4 3834. 4537. 906. o
4725 3 4 -40 2 3799. 2722. 908. o
4725 2 2 40 4 3799. 2722. 908. o
4725 1 -2 40 -4 3799. 2722. 908. o
4726 3 -4 -40 -4 7973. 7258. 909. o
4726 2 -4 40 -4 7973. 7258. 909. o
4726 1 4 40 4 7973. 7258. 909. o
4727 3 -4 -40 -6 901. 907. 907. <
4727 2 -6 40 -4 901. 907. 907. <
4727 1 6 40 4 901. 907. 907. <
4728 3 4 -40 6 913. 907. 1815. <
4728 2 6 40 4 913. 907. 1815. <
4728 1 -6 40 -4 913. 907. 1815. <
4729 3 -4 -40 -8 1220. 2722. 1360. <
4729 2 -8 40 -4 1220. 2722. 1360. <
4729 1 8 40 4 1220. 2722. 1360. <
4730 2 7 41 -4 160. 907. 1815. <
4730 1 -7 41 4 160. 907. 1815. <
4731 2 -7 41 4 161. 1815. 907. <
4731 1 7 41 -4 161. 1815. 907. <
4732 2 5 41 -4 1174. 907. 907. <
4732 1 -5 41 4 1174. 907. 907. <
4733 2 -5 41 4 1165. 907. 907. <
4733 1 5 41 -4 1165. 907. 907. <
4734 2 3 41 -4 36. 907. 907. <
4734 1 -3 41 4 36. 907. 907. <
4735 2 -3 41 4 34. -454. 907. <
4735 1 3 41 -4 34. -454. 907. <
4736 2 1 41 -4 972. -2722. 906. <
4736 1 -1 41 4 972. -2722. 906. <
4737 2 -1 41 4 964. 0. 907. <
4737 1 1 41 -4 964. 0. 907. <
4738 2 -1 41 -4 964. 0. 907. <
4738 1 1 41 4 964. 0. 907. <
4739 2 1 41 4 972. -454. 907. <
4739 1 -1 41 -4 972. -454. 907. <
4740 2 -3 41 -4 34. 454. 907. <
4740 1 3 41 4 34. 454. 907. <
4741 2 3 41 4 36. 0. 1361. <
4741 1 -3 41 -4 36. 0. 1361. <
4742 2 -5 41 -4 1165. 454. 907. <
4742 1 5 41 4 1165. 454. 907. <
4743 2 -7 41 -4 161. 1361. 1361. <
4743 1 7 41 4 161. 1361. 1361. <
4744 3 -4 -42 8 469. 3629. 2267. <
4744 2 8 42 -4 469. 3629. 2267. <
4744 1 -8 42 4 469. 3629. 2267. <
4745 3 4 -42 -8 468. -907. 907. <
4745 2 -8 42 4 468. -907. 907. <
4745 1 8 42 -4 468. -907. 907. <
4746 3 -4 -42 6 865. 2268. 907. o
4746 2 6 42 -4 865. 2268. 907. o
4746 1 -6 42 4 865. 2268. 907. o
4747 3 4 -42 -6 889. 1815. 907. <
4747 2 -6 42 4 889. 1815. 907. <
4747 1 6 42 -4 889. 1815. 907. <
4748 3 -4 -42 4 4111. 3629. 908. o
4748 2 4 42 -4 4111. 3629. 908. o
4748 1 -4 42 4 4111. 3629. 908. o
4749 3 4 -42 -4 4105. 5444. 905. o
4749 2 -4 42 4 4105. 5444. 905. o
4749 1 4 42 -4 4105. 5444. 905. o
4750 3 -4 -42 2 5910. 4990. 1362. o
4750 2 2 42 -4 5910. 4990. 1362. o
4750 1 -2 42 4 5910. 4990. 1362. o
4751 3 4 -42 -2 5986. 5898. 907. o
4751 2 -2 42 4 5986. 5898. 907. o
4751 1 2 42 -4 5986. 5898. 907. o
4752 3 -4 -42 0 11754. 12702. 904. o
4752 2 0 42 -4 11754. 12702. 904. o
4752 1 0 42 4 11754. 12702. 904. o
4753 3 4 -42 0 11722. 10888. 910. o
4753 2 0 42 4 11722. 10888. 910. o
4753 1 0 42 -4 11722. 10888. 910. o
4754 3 -4 -42 -2 5947. 5898. 907. o
4754 2 -2 42 -4 5947. 5898. 907. o
4754 1 2 42 4 5947. 5898. 907. o
4755 3 4 -42 2 5950. 6805. 906. o
4755 2 2 42 4 5950. 6805. 906. o
4755 1 -2 42 -4 5950. 6805. 906. o
4756 3 -4 -42 -4 4108. 4537. 907. o
4756 2 -4 42 -4 4108. 4537. 907. o
4756 1 4 42 4 4108. 4537. 907. o
4757 3 4 -42 4 4108. 5898. 1359. o
4757 2 4 42 4 4108. 5898. 1359. o
4757 1 -4 42 -4 4108. 5898. 1359. o
4758 3 -4 -42 -6 878. 0. 907. <
4758 2 -6 42 -4 878. 0. 907. <
4758 1 6 42 4 878. 0. 907. <
4759 3 4 -42 6 876. 907. 1815. <
4759 2 6 42 4 876. 907. 1815. <
4759 1 -6 42 -4 876. 907. 1815. <
4760 3 -4 -42 -8 465. -907. 1361. <
4760 2 -8 42 -4 465. -907. 1361. <
4760 1 8 42 4 465. -907. 1361. <
4761 2 7 43 -4 356. 454. 1815. <
4761 1 -7 43 4 356. 454. 1815. <
4762 2 -7 43 4 355. 1361. 907. <
4762 1 7 43 -4 355. 1361. 907. <
4763 2 5 43 -4 8219. 7258. 1816. o
4763 1 -5 43 4 8219. 7258. 1816. o
4764 2 -5 43 4 8228. 9073. 905. o
4764 1 5 43 -4 8228. 9073. 905. o
4765 2 3 43 -4 11090. 11341. 906. o
4765 1 -3 43 4 11090. 11341. 906. o
4766 2 -3 43 4 11101. 11795. 905. o
4766 1 3 43 -4 11101. 11795. 905. o
4767 2 1 43 -4 72224. 68956. 1848. o
4767 1 -1 43 4 72224. 68956. 1848. o
4768 2 -1 43 4 72239. 73946. 1796. o
4768 1 1 43 -4 72239. 73946. 1796. o
4769 2 -1 43 -4 72239. 75760. 1776. o
4769 1 1 43 4 72239. 75760. 1776. o
4770 2 1 43 4 72224. 69409. 1843. o
4770 1 -1 43 -4 72224. 69409. 1843. o
4771 2 -3 43 -4 11101. 11341. 907. o
4771 1 3 43 4 11101. 11341. 907. o
4772 2 -5 43 -4 8228. 9527. 904. o
4772 1 5 43 4 8228. 9527. 904. o
4773 2 -7 43 -4 355. -454. 2268. <
4773 1 7 43 4 355. -454. 2268. <
4774 3 -4 -44 8 568. 5444. 2720. <
4774 2 8 44 -4 568. 5444. 2720. <
4774 1 -8 44 4 568. 5444. 2720. <
4775 3 4 -44 -8 573. 2268. 1360. <
4775 2 -8 44 4 573. 2268. 1360. <
4775 1 8 44 -4 573. 2268. 1360. <
4776 3 -4 -44 6 677. 1361. 907. <
4776 2 6 44 -4 677. 1361. 907. <
4776 1 -6 44 4 677. 1361. 907. <
4777 3 4 -44 -6 663. 1361. 907. <
4777 2 -6 44 4 663. 1361. 907. <
4777 1 6 44 -4 663. 1361. 907. <
4778 3 -4 -44 4 2643. 3629. 906. o
4778 2 4 44 -4 2643. 3629. 906. o
4778 1 -4 44 4 2643. 3629. 906. o
4779 3 4 -44 -4 2669. 2722. 907. o
4779 2 -4 44 4 2669. 2722. 907. o
4779 1 4 44 -4 2669. 2722. 907. o
4780 3 -4 -44 2 3400. 3176. 1361. o
4780 2 2 44 -4 3400. 3176. 1361. o
4780 1 -2 44 4 3400. 3176. 1361. o
4781 3 4 -44 -2 3369. 3629. 907. o
4781 2 -2 44 4 3369. 3629. 907. o
4781 1 2 44 -4 3369. 3629. 907. o
4782 3 4 -44 0 5272. 5444. 453. o
4782 2 0 44 4 5272. 5444. 453. o
4782 1 0 44 -4 5272. 5444. 453. o
4783 3 -4 -44 -2 3392. 4537. 906. o
4783 2 -2 44 -4 3392. 4537. 906. o
4783 1 2 44 4 3392. 4537. 906. o
4784 3 4 -44 2 3377. 4990. 905. o
4784 2 2 44 4 3377. 4990. 905. o
4784 1 -2 44 -4 3377. 4990. 905. o
4785 3 -4 -44 -4 2657. 2722. 907. o
4785 2 -4 44 -4 2657. 2722. 907. o
4785 1 4 44 4 2657. 2722. 907. o
4786 3 4 -44 4 2656. 4083. 1360. o
4786 2 4 44 4 2656. 4083. 1360. o
4786 1 -4 44 -4 2656. 4083. 1360. o
4787 3 -4 -44 -6 667. 907. 1361. <
4787 2 -6 44 -4 667. 907. 1361. <
4787 1 6 44 4 667. 907. 1361. <
4788 3 4 -44 6 672. 454. 1361. <
4788 2 6 44 4 672. 454. 1361. <
4788 1 -6 44 -4 672. 454. 1361. <
4789 3 -4 -44 -8 571. 2722. 1360. <
4789 2 -8 44 -4 571. 2722. 1360. <
4789 1 8 44 4 571. 2722. 1360. <
4790 2 7 45 -4 21. 4537. 1813. o
4790 1 -7 45 4 21. 4537. 1813. o
4791 2 -7 45 4 21. -454. 907. <
4791 1 7 45 -4 21. -454. 907. <
4792 2 5 45 -4 309. 4083. 1813. o
4792 1 -5 45 4 309. 4083. 1813. o
4793 2 -5 45 4 311. 454. 907. <
4793 1 5 45 -4 311. 454. 907. <
4794 2 3 45 -4 388. 907. 453. <
4794 1 -3 45 4 388. 907. 453. <
4795 2 -3 45 4 392. 907. 907. <
4795 1 3 45 -4 392. 907. 907. <
4796 2 1 45 -4 153. 1361. 1361. <
4796 1 -1 45 4 153. 1361. 1361. <
4797 2 -1 45 4 152. 907. 907. <
4797 1 1 45 -4 152. 907. 907. <
4798 2 -1 45 -4 152. -454. 1361. <
4798 1 1 45 4 152. -454. 1361. <
4799 2 1 45 4 153. 907. 907. <
4799 1 -1 45 -4 153. 907. 907. <
4800 2 -3 45 -4 392. -454. 907. <
4800 1 3 45 4 392. -454. 907. <
4801 2 3 45 4 388. 1361. 907. <
4801 1 -3 45 -4 388. 1361. 907. <
4802 2 -5 45 -4 311. 1815. 907. <
4802 1 5 45 4 311. 1815. 907. <
4803 2 5 45 4 309. -1361. 1361. <
4803 1 -5 45 -4 309. -1361. 1361. <
4804 2 -7 45 -4 21. 0. 2268. <
4804 1 7 45 4 21. 0. 2268. <
4805 3 -4 -46 8 605. -5898. 4081. <
4805 2 8 46 -4 605. -5898. 4081. <
4805 1 -8 46 4 605. -5898. 4081. <
4806 3 4 -46 -8 610. -1361. 1361. <
4806 2 -8 46 4 610. -1361. 1361. <
4806 1 8 46 -4 610. -1361. 1361. <
4807 3 -4 -46 6 641. 1815. 1361. <
4807 2 6 46 -4 641. 1815. 1361. <
4807 1 -6 46 4 641. 1815. 1361. <
4808 3 4 -46 -6 645. -1815. 907. <
4808 2 -6 46 4 645. -1815. 907. <
4808 1 6 46 -4 645. -1815. 907. <
4809 3 -4 -46 4 786. -1815. 907. <
4809 2 4 46 -4 786. -1815. 907. <
4809 1 -4 46 4 786. -1815. 907. <
4810 3 4 -46 -4 786. 454. 907. <
4810 2 -4 46 4 786. 454. 907. <
4810 1 4 46 -4 786. 454. 907. <
4811 3 -4 -46 2 675. -454. 907. <
4811 2 2 46 -4 675. -454. 907. <
4811 1 -2 46 4 675. -454. 907. <
4812 3 4 -46 -2 670. 0. 907. <
4812 2 -2 46 4 670. 0. 907. <
4812 1 2 46 -4 670. 0. 907. <
4813 3 -4 -46 0 1649. 1815. 907. <
4813 2 0 46 -4 1649. 1815. 907. <
4813 1 0 46 4 1649. 1815. 907. <
4814 3 4 -46 0 1626. 0. 908. <
4814 2 0 46 4 1626. 0. 908. <
4814 1 0 46 -4 1626. 0. 908. <
4815 3 -4 -46 -2 680. 907. 907. <
4815 2 -2 46 -4 680. 907. 907. <
4815 1 2 46 4 680. 907. 907. <
4816 3 4 -46 2 665. -1361. 1361. <
4816 2 2 46 4 665. -1361. 1361. <
4816 1 -2 46 -4 665. -1361. 1361. <
4817 3 -4 -46 -4 786. -907. 907. <
4817 2 -4 46 -4 786. -907. 907. <
4817 1 4 46 4 786. -907. 907. <
4818 3 4 -46 4 786. -1361. 907. <
4818 2 4 46 4 786. -1361. 907. <
4818 1 -4 46 -4 786. -1361. 907. <
4819 3 -4 -46 -6 639. 454. 1361. <
4819 2 -6 46 -4 639. 454. 1361. <
4819 1 6 46 4 639. 454. 1361. <
4820 3 4 -46 6 646. 0. 1815. <
4820 2 6 46 4 646. 0. 1815. <
4820 1 -6 46 -4 646. 0. 1815. <
4821 3 -4 -46 -8 608. 1815. 1361. <
4821 2 -8 46 -4 608. 1815. 1361. <
4821 1 8 46 4 608. 1815. 1361. <
4822 2 7 47 -4 58. -1815. 1814. <
4822 1 -7 47 4 58. -1815. 1814. <
4823 2 -7 47 4 58. 907. 907. <
4823 1 7 47 -4 58. 907. 907. <
4824 2 5 47 -4 180. -454. 907. <
4824 1 -5 47 4 180. -454. 907. <
4825 2 -5 47 4 180. 907. 907. <
4825 1 5 47 -4 180. 907. 907. <
4826 2 3 47 -4 272. 907. 907. <
4826 1 -3 47 4 272. 907. 907. <
4827 2 -3 47 4 271. 454. 907. <
4827 1 3 47 -4 271. 454. 907. <
4828 2 1 47 -4 14. 454. 907. <
4828 1 -1 47 4 14. 454. 907. <
4829 2 -1 47 4 14. 454. 907. <
4829 1 1 47 -4 14. 454. 907. <
4830 2 -1 47 -4 14. -454. 1361. <
4830 1 1 47 4 14. -454. 1361. <
4831 2 1 47 4 14. -454. 454. <
4831 1 -1 47 -4 14. -454. 454. <
4832 2 -3 47 -4 271. 454. 907. <
4832 1 3 47 4 271. 454. 907. <
4833 2 3 47 4 272. -454. 1361. <
4833 1 -3 47 -4 272. -454. 1361. <
4834 2 -5 47 -4 180. 454. 907. <
4834 1 5 47 4 180. 454. 907. <
4835 2 5 47 4 180. 907. 1361. <
4835 1 -5 47 -4 180. 907. 1361. <
4836 2 -7 47 -4 58. -1361. 2268. <
4836 1 7 47 4 58. -1361. 2268. <
4837 3 -4 -48 8 7974. 3176. 4084. <
4837 2 8 48 -4 7974. 3176. 4084. <
4837 1 -8 48 4 7974. 3176. 4084. <
4838 3 4 -48 -8 7961. 4990. 1364. o
4838 2 -8 48 4 7961. 4990. 1364. o
4838 1 8 48 -4 7961. 4990. 1364. o
4839 3 -4 -48 6 19217. 11341. 2733. o
4839 2 6 48 -4 19217. 11341. 2733. o
4839 1 -6 48 4 19217. 11341. 2733. o
4840 3 4 -48 -6 19364. 23590. 1342. o
4840 2 -6 48 4 19364. 23590. 1342. o
4840 1 6 48 -4 19364. 23590. 1342. o
4841 3 -4 -48 4 105627. 74853. 2967. o
4841 2 4 48 -4 105627. 74853. 2967. o
4841 1 -4 48 4 105627. 74853. 2967. o
4842 3 4 -48 -4 105729. 140633. 1656. o
4842 2 -4 48 4 105729. 140633. 1656. o
4842 1 4 48 -4 105729. 140633. 1656. o
4843 3 -4 -48 2 131458. 172389. 1296. o
4843 2 2 48 -4 131458. 172389. 1296. o
4843 1 -2 48 4 131458. 172389. 1296. o
4844 3 4 -48 -2 131810. 146984. 1464. o
4844 2 -2 48 4 131810. 146984. 1464. o
4844 1 2 48 -4 131810. 146984. 1464. o
4845 3 -4 -48 0 289664. 309847. 1372. o
4845 2 0 48 -4 289664. 309847. 1372. o
4845 1 0 48 4 289664. 309847. 1372. o
4846 3 4 -48 0 289724. 320735. 107. o
4846 2 0 48 4 289724. 320735. 107. o
4846 1 0 48 -4 289724. 320735. 107. o
4847 3 -4 -48 -2 131654. 140180. 1634. o
4847 2 -2 48 -4 131654. 140180. 1634. o
4847 1 2 48 4 131654. 140180. 1634. o
4848 3 4 -48 2 131614. 169214. 1415. o
4848 2 2 48 4 131614. 169214. 1415. o
4848 1 -2 48 -4 131614. 169214. 1415. o
4849 3 -4 -48 -4 105681. 109785. 1271. o
4849 2 -4 48 -4 105681. 109785. 1271. o
4849 1 4 48 4 105681. 109785. 1271. o
4850 3 -4 -48 -6 19279. 13610. 1827. o
4850 2 -6 48 -4 19279. 13610. 1827. o
4850 1 6 48 4 19279. 13610. 1827. o
4851 3 4 -48 6 19302. 26766. 2704. o
4851 2 6 48 4 19302. 26766. 2704. o
4851 1 -6 48 -4 19302. 26766. 2704. o
4852 3 -4 -48 -8 7966. 4990. 1364. o
4852 2 -8 48 -4 7966. 4990. 1364. o
4852 1 8 48 4 7966. 4990. 1364. o
4853 2 7 49 -4 8. 0. 1815. <
4853 1 -7 49 4 8. 0. 1815. <
4854 2 -7 49 4 8. -907. 1361. <
4854 1 7 49 -4 8. -907. 1361. <
4855 2 5 49 -4 66. 1361. 907. <
4855 1 -5 49 4 66. 1361. 907. <
4856 2 -5 49 4 66. 0. 907. <
4856 1 5 49 -4 66. 0. 907. <
4857 2 3 49 -4 169. 454. 907. <
4857 1 -3 49 4 169. 454. 907. <
4858 2 -3 49 4 169. 454. 907. <
4858 1 3 49 -4 169. 454. 907. <
4859 2 1 49 -4 197. 907. 907. <
4859 1 -1 49 4 197. 907. 907. <
4860 2 -1 49 4 196. 454. 907. <
4860 1 1 49 -4 196. 454. 907. <
4861 2 -1 49 -4 196. 1361. 1361. <
4861 1 1 49 4 196. 1361. 1361. <
4862 2 1 49 4 197. 1815. 907. <
4862 1 -1 49 -4 197. 1815. 907. <
4863 2 -3 49 -4 169. 454. 907. <
4863 1 3 49 4 169. 454. 907. <
4864 2 3 49 4 169. 454. 1361. <
4864 1 -3 49 -4 169. 454. 1361. <
4865 2 -5 49 -4 66. 0. 907. <
4865 1 5 49 4 66. 0. 907. <
4866 2 5 49 4 66. 0. 1361. <
4866 1 -5 49 -4 66. 0. 1361. <
4867 2 -7 49 -4 8. 1361. 1814. <
4867 1 7 49 4 8. 1361. 1814. <
4868 3 -4 -50 8 3425. 3629. 3629. <
4868 2 8 50 -4 3425. 3629. 3629. <
4868 1 -8 50 4 3425. 3629. 3629. <
4869 3 4 -50 -8 3407. 907. 1362. <
4869 2 -8 50 4 3407. 907. 1362. <
4869 1 8 50 -4 3407. 907. 1362. <
4870 3 -4 -50 6 6420. 5444. 2722. <
4870 2 6 50 -4 6420. 5444. 2722. <
4870 1 -6 50 4 6420. 5444. 2722. <
4871 3 4 -50 -6 6495. 5898. 1362. o
4871 2 -6 50 4 6495. 5898. 1362. o
4871 1 6 50 -4 6495. 5898. 1362. o
4872 3 -4 -50 4 40405. 15878. 1899. o
4872 2 4 50 -4 40405. 15878. 1899. o
4872 1 -4 50 4 40405. 15878. 1899. o
4873 3 4 -50 -4 40504. 40375. 2269. o
4873 2 -4 50 4 40504. 40375. 2269. o
4873 1 4 50 -4 40504. 40375. 2269. o
4874 3 -4 -50 2 41444. 48088. 1769. o
4874 2 2 50 -4 41444. 48088. 1769. o
4874 1 -2 50 4 41444. 48088. 1769. o
4875 3 4 -50 -2 41750. 41736. 1361. o
4875 2 -2 50 4 41750. 41736. 1361. o
4875 1 2 50 -4 41750. 41736. 1361. o
4876 3 -4 -50 0 110186. 116590. 1704. o
4876 2 0 50 -4 110186. 116590. 1704. o
4876 1 0 50 4 110186. 116590. 1704. o
4877 3 4 -50 0 110385. 117497. 1690. o
4877 2 0 50 4 110385. 117497. 1690. o
4877 1 0 50 -4 110385. 117497. 1690. o
4878 3 -4 -50 -2 41566. 39922. 1374. o
4878 2 -2 50 -4 41566. 39922. 1374. o
4878 1 2 50 4 41566. 39922. 1374. o
4879 3 4 -50 2 41627. 47180. 1311. o
4879 2 2 50 4 41627. 47180. 1311. o
4879 1 -2 50 -4 41627. 47180. 1311. o
4880 3 -4 -50 -4 40457. 24497. 1451. o
4880 2 -4 50 -4 40457. 24497. 1451. o
4880 1 4 50 4 40457. 24497. 1451. o
4881 3 -4 -50 -6 6461. 2268. 1817. <
4881 2 -6 50 -4 6461. 2268. 1817. <
4881 1 6 50 4 6461. 2268. 1817. <
4882 3 4 -50 6 6455. 5444. 2269. o
4882 2 6 50 4 6455. 5444. 2269. o
4882 1 -6 50 -4 6455. 5444. 2269. o
4883 3 -4 -50 -8 3422. 6805. 1357. o
4883 2 -8 50 -4 3422. 6805. 1357. o
4883 1 8 50 4 3422. 6805. 1357. o
4884 2 7 51 -4 19. 907. 1815. <
4884 1 -7 51 4 19. 907. 1815. <
4885 2 -7 51 4 19. 1361. 1361. <
4885 1 7 51 -4 19. 1361. 1361. <
4886 2 5 51 -4 25. 1815. 907. <
4886 1 -5 51 4 25. 1815. 907. <
4887 2 -5 51 4 25. 2268. 1814. <
4887 1 5 51 -4 25. 2268. 1814. <
4888 2 3 51 -4 137. -454. 907. <
4888 1 -3 51 4 137. -454. 907. <
4889 2 -3 51 4 138. 907. 907. <
4889 1 3 51 -4 138. 907. 907. <
4890 2 1 51 -4 176. 907. 907. <
4890 1 -1 51 4 176. 907. 907. <
4891 2 -1 51 4 177. 454. 454. <
4891 1 1 51 -4 177. 454. 454. <
4892 2 -1 51 -4 177. 907. 1361. <
4892 1 1 51 4 177. 907. 1361. <
4893 2 1 51 4 176. 1815. 907. <
4893 1 -1 51 -4 176. 1815. 907. <
4894 2 -3 51 -4 138. 454. 907. <
4894 1 3 51 4 138. 454. 907. <
4895 2 3 51 4 137. 907. 1361. <
4895 1 -3 51 -4 137. 907. 1361. <
4896 2 -5 51 -4 25. 1361. 907. <
4896 1 5 51 4 25. 1361. 907. <
4897 2 5 51 4 25. 907. 1361. <
4897 1 -5 51 -4 25. 907. 1361. <
4898 2 -7 51 -4 19. 4083. 1813. o
4898 1 7 51 4 19. 4083. 1813. o
4899 3 -4 -52 6 722. -1361. 1361. <
4899 2 6 52 -4 722. -1361. 1361. <
4899 1 -6 52 4 722. -1361. 1361. <
4900 3 4 -52 -6 719. -907. 1815. <
4900 2 -6 52 4 719. -907. 1815. <
4900 1 6 52 -4 719. -907. 1815. <
4901 3 -4 -52 4 1862. 1361. 908. <
4901 2 4 52 -4 1862. 1361. 908. <
4901 1 -4 52 4 1862. 1361. 908. <
4902 3 4 -52 -4 1860. 454. 1815. <
4902 2 -4 52 4 1860. 454. 1815. <
4902 1 4 52 -4 1860. 454. 1815. <
4903 3 -4 -52 2 4126. 4083. 907. o
4903 2 2 52 -4 4126. 4083. 907. o
4903 1 -2 52 4 4126. 4083. 907. o
4904 3 4 -52 -2 4131. 4990. 906. o
4904 2 -2 52 4 4131. 4990. 906. o
4904 1 2 52 -4 4131. 4990. 906. o
4905 3 -4 -52 0 4732. 1815. 910. <
4905 2 0 52 -4 4732. 1815. 910. <
4905 1 0 52 4 4732. 1815. 910. <
4906 3 4 -52 0 4756. 4083. 908. o
4906 2 0 52 4 4756. 4083. 908. o
4906 1 0 52 -4 4756. 4083. 908. o
4907 3 -4 -52 -2 4121. 3176. 908. o
4907 2 -2 52 -4 4121. 3176. 908. o
4907 1 2 52 4 4121. 3176. 908. o
4908 3 4 -52 2 4135. 4083. 1361. o
4908 2 2 52 4 4135. 4083. 1361. o
4908 1 -2 52 -4 4135. 4083. 1361. o
4909 3 -4 -52 -4 1861. -454. 1361. <
4909 2 -4 52 -4 1861. -454. 1361. <
4909 1 4 52 4 1861. -454. 1361. <
4910 3 4 -52 4 1861. 1361. 908. <
4910 2 4 52 4 1861. 1361. 908. <
4910 1 -4 52 -4 1861. 1361. 908. <
4911 3 -4 -52 -6 722. -907. 1815. <
4911 2 -6 52 -4 722. -907. 1815. <
4911 1 6 52 4 722. -907. 1815. <
4912 3 4 -52 6 719. 1361. 1815. <
4912 2 6 52 4 719. 1361. 1815. <
4912 1 -6 52 -4 719. 1361. 1815. <
4913 2 7 53 -4 103. 1815. 1814. <
4913 1 -7 53 4 103. 1815. 1814. <
4914 2 -7 53 4 104. 1815. 1361. <
4914 1 7 53 -4 104. 1815. 1361. <
4915 2 5 53 -4 83. 1815. 1361. <
4915 1 -5 53 4 83. 1815. 1361. <
4916 2 -5 53 4 83. 3176. 1814. <
4916 1 5 53 -4 83. 3176. 1814. <
4917 2 3 53 -4 590. -907. 453. <
4917 1 -3 53 4 590. -907. 453. <
4918 2 -3 53 4 592. -1361. 1361. <
4918 1 3 53 -4 592. -1361. 1361. <
4919 2 1 53 -4 736. 1361. 907. <
4919 1 -1 53 4 736. 1361. 907. <
4920 2 -1 53 4 736. 1815. 907. <
4920 1 1 53 -4 736. 1815. 907. <
4921 2 -1 53 -4 736. -454. 1361. <
4921 1 1 53 4 736. -454. 1361. <
4922 2 1 53 4 736. 454. 907. <
4922 1 -1 53 -4 736. 454. 907. <
4923 2 -3 53 -4 592. -454. 907. <
4923 1 3 53 4 592. -454. 907. <
4924 2 3 53 4 590. -907. 1361. <
4924 1 -3 53 -4 590. -907. 1361. <
4925 2 -5 53 -4 83. -907. 1361. <
4925 1 5 53 4 83. -907. 1361. <
4926 2 5 53 4 83. -454. 1361. <
4926 1 -5 53 -4 83. -454. 1361. <
4927 2 -7 53 -4 104. 2268. 1814. <
4927 1 7 53 4 104. 2268. 1814. <
4928 3 -4 -54 6 407. 454. 907. <
4928 2 6 54 -4 407. 454. 907. <
4928 1 -6 54 4 407. 454. 907. <
4929 3 4 -54 -6 405. 1815. 1361. <
4929 2 -6 54 4 405. 1815. 1361. <
4929 1 6 54 -4 405. 1815. 1361. <
4930 3 -4 -54 4 1044. 2722. 906. o
4930 2 4 54 -4 1044. 2722. 906. o
4930 1 -4 54 4 1044. 2722. 906. o
4931 3 4 -54 -4 1024. 2722. 1814. <
4931 2 -4 54 4 1024. 2722. 1814. <
4931 1 4 54 -4 1024. 2722. 1814. <
4932 3 -4 -54 2 1925. 2722. 907. o
4932 2 2 54 -4 1925. 2722. 907. o
4932 1 -2 54 4 1925. 2722. 907. o
4933 3 4 -54 -2 1921. 1361. 908. <
4933 2 -2 54 4 1921. 1361. 908. <
4933 1 2 54 -4 1921. 1361. 908. <
4934 3 -4 -54 0 1967. 2722. 907. o
4934 2 0 54 -4 1967. 2722. 907. o
4934 1 0 54 4 1967. 2722. 907. o
4935 3 4 -54 0 1952. 2722. 907. o
4935 2 0 54 4 1952. 2722. 907. o
4935 1 0 54 -4 1952. 2722. 907. o
4936 3 -4 -54 -2 1918. 1361. 908. <
4936 2 -2 54 -4 1918. 1361. 908. <
4936 1 2 54 4 1918. 1361. 908. <
4937 3 4 -54 2 1928. 1361. 1361. <
4937 2 2 54 4 1928. 1361. 1361. <
4937 1 -2 54 -4 1928. 1361. 1361. <
4938 3 -4 -54 -4 1033. 4537. 1359. o
4938 2 -4 54 -4 1033. 4537. 1359. o
4938 1 4 54 4 1033. 4537. 1359. o
4939 3 4 -54 4 1034. 1815. 1361. <
4939 2 4 54 4 1034. 1815. 1361. <
4939 1 -4 54 -4 1034. 1815. 1361. <
4940 3 -4 -54 -6 408. 1815. 2268. <
4940 2 -6 54 -4 408. 1815. 2268. <
4940 1 6 54 4 408. 1815. 2268. <
4941 3 4 -54 6 404. 0. 1815. <
4941 2 6 54 4 404. 0. 1815. <
4941 1 -6 54 -4 404. 0. 1815. <
4942 2 7 55 -4 381. 1815. 2268. <
4942 1 -7 55 4 381. 1815. 2268. <
4943 2 -7 55 4 380. 0. 1815. <
4943 1 7 55 -4 380. 0. 1815. <
4944 2 5 55 -4 381. -454. 1361. <
4944 1 -5 55 4 381. -454. 1361. <
4945 2 -5 55 4 380. 907. 907. <
4945 1 5 55 -4 380. 907. 907. <
4946 2 3 55 -4 12712. 12702. 907. o
4946 1 -3 55 4 12712. 12702. 907. o
4947 2 -3 55 4 12706. 9527. 1820. o
4947 1 3 55 -4 12706. 9527. 1820. o
4948 2 1 55 -4 22998. 26766. 879. o
4948 1 -1 55 4 22998. 26766. 879. o
4949 2 -1 55 4 22994. 24044. 900. o
4949 1 1 55 -4 22994. 24044. 900. o
4950 2 -1 55 -4 22994. 16332. 1833. o
4950 1 1 55 4 22994. 16332. 1833. o
4951 2 1 55 4 22998. 29034. 1790. o
4951 1 -1 55 -4 22998. 29034. 1790. o
4952 2 -3 55 -4 12706. 11341. 912. o
4952 1 3 55 4 12706. 11341. 912. o
4953 2 3 55 4 12712. 22229. 1325. o
4953 1 -3 55 -4 12712. 22229. 1325. o
4954 2 -5 55 -4 380. 1361. 1361. <
4954 1 5 55 4 380. 1361. 1361. <
4955 2 5 55 4 381. 0. 1361. <
4955 1 -5 55 -4 381. 0. 1361. <
4956 2 -7 55 -4 380. -454. 1815. <
4956 1 7 55 4 380. -454. 1815. <
4957 3 -4 -56 6 155. -2722. 1814. <
4957 2 6 56 -4 155. -2722. 1814. <
4957 1 -6 56 4 155. -2722. 1814. <
4958 3 4 -56 -6 152. 1361. 2268. <
4958 2 -6 56 4 152. 1361. 2268. <
4958 1 6 56 -4 152. 1361. 2268. <
4959 3 -4 -56 4 549. 1361. 907. <
4959 2 4 56 -4 549. 1361. 907. <
4959 1 -4 56 4 549. 1361. 907. <
4960 3 4 -56 -4 556. 454. 907. <
4960 2 -4 56 4 556. 454. 907. <
4960 1 4 56 -4 556. 454. 907. <
4961 3 -4 -56 2 539. 907. 907. <
4961 2 2 56 -4 539. 907. 907. <
4961 1 -2 56 4 539. 907. 907. <
4962 3 4 -56 -2 532. -907. 907. <
4962 2 -2 56 4 532. -907. 907. <
4962 1 2 56 -4 532. -907. 907. <
4963 3 -4 -56 0 938. 907. 907. <
4963 2 0 56 -4 938. 907. 907. <
4963 1 0 56 4 938. 907. 907. <
4964 3 4 -56 0 946. 454. 1361. <
4964 2 0 56 4 946. 454. 1361. <
4964 1 0 56 -4 946. 454. 1361. <
4965 3 -4 -56 -2 536. 907. 907. <
4965 2 -2 56 -4 536. 907. 907. <
4965 1 2 56 4 536. 907. 907. <
4966 3 4 -56 2 535. 454. 907. <
4966 2 2 56 4 535. 454. 907. <
4966 1 -2 56 -4 535. 454. 907. <
4967 3 -4 -56 -4 553. 454. 1361. <
4967 2 -4 56 -4 553. 454. 1361. <
4967 1 4 56 4 553. 454. 1361. <
4968 3 4 -56 4 553. 907. 1361. <
4968 2 4 56 4 553. 907. 1361. <
4968 1 -4 56 -4 553. 907. 1361. <
4969 3 -4 -56 -6 153. 907. 2268. <
4969 2 -6 56 -4 153. 907. 2268. <
4969 1 6 56 4 153. 907. 2268. <
4970 3 4 -56 6 154. 907. 2268. <
4970 2 6 56 4 154. 907. 2268. <
4970 1 -6 56 -4 154. 907. 2268. <
4971 2 7 57 -4 40. -1361. 2268. <
4971 1 -7 57 4 40. -1361. 2268. <
4972 2 -7 57 4 39. 5444. 1812. o
4972 1 7 57 -4 39. 5444. 1812. o
4973 2 5 57 -4 111. 2268. 1360. <
4973 1 -5 57 4 111. 2268. 1360. <
4974 2 -5 57 4 110. -907. 2268. <
4974 1 5 57 -4 110. -907. 2268. <
4975 2 3 57 -4 561. 2722. 906. o
4975 1 -3 57 4 561. 2722. 906. o
4976 2 -3 57 4 558. 4537. 1813. o
4976 1 3 57 -4 558. 4537. 1813. o
4977 2 1 57 -4 764. 907. 907. <
4977 1 -1 57 4 764. 907. 907. <
4978 2 -1 57 4 762. 0. 1361. <
4978 1 1 57 -4 762. 0. 1361. <
4979 2 -1 57 -4 762. 1361. 907. <
4979 1 1 57 4 762. 1361. 907. <
4980 2 1 57 4 764. -907. 1361. <
4980 1 -1 57 -4 764. -907. 1361. <
4981 2 -3 57 -4 558. 2268. 906. o
4981 1 3 57 4 558. 2268. 906. o
4982 2 3 57 4 561. 454. 1361. <
4982 1 -3 57 -4 561. 454. 1361. <
4983 2 -5 57 -4 110. 1815. 1814. <
4983 1 5 57 4 110. 1815. 1814. <
4984 2 5 57 4 111. 907. 1361. <
4984 1 -5 57 -4 111. 907. 1361. <
4985 2 -7 57 -4 39. 1361. 1814. <
4985 1 7 57 4 39. 1361. 1814. <
4986 3 -4 -58 6 433. 907. 1815. <
4986 2 6 58 -4 433. 907. 1815. <
4986 1 -6 58 4 433. 907. 1815. <
4987 3 4 -58 -6 430. -2722. 2268. <
4987 2 -6 58 4 430. -2722. 2268. <
4987 1 6 58 -4 430. -2722. 2268. <
4988 3 -4 -58 4 460. -1361. 907. <
4988 2 4 58 -4 460. -1361. 907. <
4988 1 -4 58 4 460. -1361. 907. <
4989 3 4 -58 -4 460. 454. 2268. <
4989 2 -4 58 4 460. 454. 2268. <
4989 1 4 58 -4 460. 454. 2268. <
4990 3 -4 -58 2 746. 907. 907. <
4990 2 2 58 -4 746. 907. 907. <
4990 1 -2 58 4 746. 907. 907. <
4991 3 4 -58 -2 755. 454. 1815. <
4991 2 -2 58 4 755. 454. 1815. <
4991 1 2 58 -4 755. 454. 1815. <
4992 3 -4 -58 0 723. 454. 907. <
4992 2 0 58 -4 723. 454. 907. <
4992 1 0 58 4 723. 454. 907. <
4993 3 4 -58 0 731. 1815. 1361. <
4993 2 0 58 4 731. 1815. 1361. <
4993 1 0 58 -4 731. 1815. 1361. <
4994 3 -4 -58 -2 749. 1815. 907. <
4994 2 -2 58 -4 749. 1815. 907. <
4994 1 2 58 4 749. 1815. 907. <
4995 3 4 -58 2 752. 1815. 1361. <
4995 2 2 58 4 752. 1815. 1361. <
4995 1 -2 58 -4 752. 1815. 1361. <
4996 3 -4 -58 -4 460. 454. 1815. <
4996 2 -4 58 -4 460. 454. 1815. <
4996 1 4 58 4 460. 454. 1815. <
4997 3 4 -58 4 460. 0. 1361. <
4997 2 4 58 4 460. 0. 1361. <
4997 1 -4 58 -4 460. 0. 1361. <
4998 3 -4 -58 -6 432. 454. 1815. <
4998 2 -6 58 -4 432. 454. 1815. <
4998 1 6 58 4 432. 454. 1815. <
4999 3 4 -58 6 432. 454. 2268. <
4999 2 6 58 4 432. 454. 2268. <
4999 1 -6 58 -4 432. 454. 2268. <
5000 2 7 59 -4 35. -907. 1815. <
5000 1 -7 59 4 35. -907. 1815. <
5001 2 -7 59 4 35. 907. 1815. <
5001 1 7 59 -4 35. 907. 1815. <
5002 2 5 59 -4 38. 907. 1361. <
5002 1 -5 59 4 38. 907. 1361. <
5003 2 -5 59 4 38. 1815. 2722. <
5003 1 5 59 -4 38. 1815. 2722. <
5004 2 3 59 -4 216. 1361. 907. <
5004 1 -3 59 4 216. 1361. 907. <
5005 2 -3 59 4 216. 6805. 1810. o
5005 1 3 59 -4 216. 6805. 1810. o
5006 2 1 59 -4 223. 1815. 907. <
5006 1 -1 59 4 223. 1815. 907. <
5007 2 -1 59 4 224. 1361. 1361. <
5007 1 1 59 -4 224. 1361. 1361. <
5008 2 -1 59 -4 224. 907. 907. <
5008 1 1 59 4 224. 907. 907. <
5009 2 1 59 4 223. 3176. 1360. o
5009 1 -1 59 -4 223. 3176. 1360. o
5010 2 -3 59 -4 216. 2268. 906. o
5010 1 3 59 4 216. 2268. 906. o
5011 2 3 59 4 216. 1815. 1361. <
5011 1 -3 59 -4 216. 1815. 1361. <
5012 2 -5 59 -4 38. -907. 1815. <
5012 1 5 59 4 38. -907. 1815. <
5013 2 5 59 4 38. -454. 1361. <
5013 1 -5 59 -4 38. -454. 1361. <
5014 2 -7 59 -4 35. 2722. 1814. <
5014 1 7 59 4 35. 2722. 1814. <
5015 3 -4 -60 6 7253. 6351. 1816. o
5015 2 6 60 -4 7253. 6351. 1816. o
5015 1 -6 60 4 7253. 6351. 1816. o
5016 3 4 -60 -6 7223. 907. 2724. <
5016 2 -6 60 4 7223. 907. 2724. <
5016 1 6 60 -4 7223. 907. 2724. <
5017 3 -4 -60 4 20122. 20414. 1360. o
5017 2 4 60 -4 20122. 20414. 1360. o
5017 1 -4 60 4 20122. 20414. 1360. o
5018 3 4 -60 -4 20045. 21322. 2719. o
5018 2 -4 60 4 20045. 21322. 2719. o
5018 1 4 60 -4 20045. 21322. 2719. o
5019 3 -4 -60 2 28726. 35385. 840. o
5019 2 2 60 -4 28726. 35385. 840. o
5019 1 -2 60 4 28726. 35385. 840. o
5020 3 4 -60 -2 28667. 22683. 2286. o
5020 2 -2 60 4 28667. 22683. 2286. o
5020 1 2 60 -4 28667. 22683. 2286. o
5021 3 -4 -60 0 37679. 37653. 1361. o
5021 2 0 60 -4 37679. 37653. 1361. o
5021 1 0 60 4 37679. 37653. 1361. o
5022 3 4 -60 0 37681. 41736. 1790. o
5022 2 0 60 4 37681. 41736. 1790. o
5022 1 0 60 -4 37681. 41736. 1790. o
5023 3 -4 -60 -2 28680. 25405. 1378. o
5023 2 -2 60 -4 28680. 25405. 1378. o
5023 1 2 60 4 28680. 25405. 1378. o
5024 3 4 -60 2 28714. 41736. 1742. o
5024 2 2 60 4 28714. 41736. 1742. o
5024 1 -2 60 -4 28714. 41736. 1742. o
5025 3 -4 -60 -4 20081. 14971. 2278. o
5025 2 -4 60 -4 20081. 14971. 2278. o
5025 1 4 60 4 20081. 14971. 2278. o
5026 3 4 -60 4 20086. 32663. 1761. o
5026 2 4 60 4 20086. 32663. 1761. o
5026 1 -4 60 -4 20086. 32663. 1761. o
5027 3 -4 -60 -6 7245. 1815. 1818. <
5027 2 -6 60 -4 7245. 1815. 1818. <
5027 1 6 60 4 7245. 1815. 1818. <
5028 3 4 -60 6 7231. 6805. 2269. o
5028 2 6 60 4 7231. 6805. 2269. o
5028 1 -6 60 -4 7231. 6805. 2269. o
5029 2 5 61 -4 17. 454. 1361. <
5029 1 -5 61 4 17. 454. 1361. <
5030 2 -5 61 4 17. -2268. 2722. <
5030 1 5 61 -4 17. -2268. 2722. <
5031 2 3 61 -4 10. 454. 907. <
5031 1 -3 61 4 10. 454. 907. <
5032 2 -3 61 4 10. 3629. 2267. <
5032 1 3 61 -4 10. 3629. 2267. <
5033 2 1 61 -4 117. 454. 907. <
5033 1 -1 61 4 117. 454. 907. <
5034 2 -1 61 4 116. 454. 1361. <
5034 1 1 61 -4 116. 454. 1361. <
5035 2 -1 61 -4 116. 2268. 906. o
5035 1 1 61 4 116. 2268. 906. o
5036 2 1 61 4 117. -1361. 1361. <
5036 1 -1 61 -4 117. -1361. 1361. <
5037 2 -3 61 -4 10. 2722. 1360. <
5037 1 3 61 4 10. 2722. 1360. <
5038 2 3 61 4 10. 454. 907. <
5038 1 -3 61 -4 10. 454. 907. <
5039 2 -5 61 -4 17. 3176. 2267. <
5039 1 5 61 4 17. 3176. 2267. <
5040 2 5 61 4 17. 1361. 1361. <
5040 1 -5 61 -4 17. 1361. 1361. <
5041 3 -4 -62 6 3108. 3629. 2268. <
5041 2 6 62 -4 3108. 3629. 2268. <
5041 1 -6 62 4 3108. 3629. 2268. <
5042 3 4 -62 -6 3100. 4537. 2721. <
5042 2 -6 62 4 3100. 4537. 2721. <
5042 1 6 62 -4 3100. 4537. 2721. <
5043 3 -4 -62 4 7901. 11341. 1354. o
5043 2 4 62 -4 7901. 11341. 1354. o
5043 1 -4 62 4 7901. 11341. 1354. o
5044 3 4 -62 -4 7813. 11341. 2718. o
5044 2 -4 62 4 7813. 11341. 2718. o
5044 1 4 62 -4 7813. 11341. 2718. o
5045 3 -4 -62 2 7540. 8166. 906. o
5045 2 2 62 -4 7540. 8166. 906. o
5045 1 -2 62 4 7540. 8166. 906. o
5046 3 4 -62 -2 7415. 6805. 1362. o
5046 2 -2 62 4 7415. 6805. 1362. o
5046 1 2 62 -4 7415. 6805. 1362. o
5047 3 -4 -62 0 10875. 7712. 915. o
5047 2 0 62 -4 10875. 7712. 915. o
5047 1 0 62 4 10875. 7712. 915. o
5048 3 4 -62 0 10756. 9527. 1363. o
5048 2 0 62 4 10756. 9527. 1363. o
5048 1 0 62 -4 10756. 9527. 1363. o
5049 3 -4 -62 -2 7496. 7258. 908. o
5049 2 -2 62 -4 7496. 7258. 908. o
5049 1 2 62 4 7496. 7258. 908. o
5050 3 4 -62 2 7459. 14971. 1801. o
5050 2 2 62 4 7459. 14971. 1801. o
5050 1 -2 62 -4 7459. 14971. 1801. o
5051 3 -4 -62 -4 7854. 4537. 2270. <
5051 2 -4 62 -4 7854. 4537. 2270. <
5051 1 4 62 4 7854. 4537. 2270. <
5052 3 4 -62 4 7859. 12249. 1352. o
5052 2 4 62 4 7859. 12249. 1352. o
5052 1 -4 62 -4 7859. 12249. 1352. o
5053 3 -4 -62 -6 3100. 3629. 2268. <
5053 2 -6 62 -4 3100. 3629. 2268. <
5053 1 6 62 4 3100. 3629. 2268. <
5054 3 4 -62 6 3108. 1361. 2269. <
5054 2 6 62 4 3108. 1361. 2269. <
5054 1 -6 62 -4 3108. 1361. 2269. <
5055 2 5 63 -4 21. 1815. 1814. <
5055 1 -5 63 4 21. 1815. 1814. <
5056 2 -5 63 4 21. -3176. 3629. <
5056 1 5 63 -4 21. -3176. 3629. <
5057 2 3 63 -4 32. 454. 907. <
5057 1 -3 63 4 32. 454. 907. <
5058 2 -3 63 4 32. 454. 2268. <
5058 1 3 63 -4 32. 454. 2268. <
5059 2 1 63 -4 81. 454. 907. <
5059 1 -1 63 4 81. 454. 907. <
5060 2 -1 63 4 80. -1815. 1361. <
5060 1 1 63 -4 80. -1815. 1361. <
5061 2 -1 63 -4 80. 907. 907. <
5061 1 1 63 4 80. 907. 907. <
5062 2 1 63 4 81. -907. 1361. <
5062 1 -1 63 -4 81. -907. 1361. <
5063 2 -3 63 -4 32. 1361. 1361. <
5063 1 3 63 4 32. 1361. 1361. <
5064 2 3 63 4 32. 907. 1361. <
5064 1 -3 63 -4 32. 907. 1361. <
5065 2 -5 63 -4 21. -907. 2722. <
5065 1 5 63 4 21. -907. 2722. <
5066 2 5 63 4 21. -454. 1361. <
5066 1 -5 63 -4 21. -454. 1361. <
5067 3 -4 -64 6 403. 1815. 2268. <
5067 2 6 64 -4 403. 1815. 2268. <
5067 1 -6 64 4 403. 1815. 2268. <
5068 3 4 -64 -6 403. 3629. 2721. <
5068 2 -6 64 4 403. 3629. 2721. <
5068 1 6 64 -4 403. 3629. 2721. <
5069 3 -4 -64 4 542. 907. 1361. <
5069 2 4 64 -4 542. 907. 1361. <
5069 1 -4 64 4 542. 907. 1361. <
5070 3 4 -64 -4 544. -907. 2722. <
5070 2 -4 64 4 544. -907. 2722. <
5070 1 4 64 -4 544. -907. 2722. <
5071 3 -4 -64 2 1663. -454. 907. <
5071 2 2 64 -4 1663. -454. 907. <
5071 1 -2 64 4 1663. -454. 907. <
5072 3 4 -64 -2 1658. 454. 1815. <
5072 2 -2 64 4 1658. 454. 1815. <
5072 1 2 64 -4 1658. 454. 1815. <
5073 3 -4 -64 0 958. -454. 907. <
5073 2 0 64 -4 958. -454. 907. <
5073 1 0 64 4 958. -454. 907. <
5074 3 4 -64 0 952. 1361. 1361. <
5074 2 0 64 4 952. 1361. 1361. <
5074 1 0 64 -4 952. 1361. 1361. <
5075 3 -4 -64 -2 1663. 2268. 1361. <
5075 2 -2 64 -4 1663. 2268. 1361. <
5075 1 2 64 4 1663. 2268. 1361. <
5076 3 4 -64 2 1657. 2268. 1361. <
5076 2 2 64 4 1657. 2268. 1361. <
5076 1 -2 64 -4 1657. 2268. 1361. <
5077 3 -4 -64 -4 543. 2722. 1814. <
5077 2 -4 64 -4 543. 2722. 1814. <
5077 1 4 64 4 543. 2722. 1814. <
5078 3 4 -64 4 543. 454. 907. <
5078 2 4 64 4 543. 454. 907. <
5078 1 -4 64 -4 543. 454. 907. <
5079 3 -4 -64 -6 402. 0. 2268. <
5079 2 -6 64 -4 402. 0. 2268. <
5079 1 6 64 4 402. 0. 2268. <
5080 3 4 -64 6 404. 0. 2268. <
5080 2 6 64 4 404. 0. 2268. <
5080 1 -6 64 -4 404. 0. 2268. <
5081 2 5 65 -4 11. -907. 1815. <
5081 1 -5 65 4 11. -907. 1815. <
5082 2 -5 65 4 11. -907. 4083. <
5082 1 5 65 -4 11. -907. 4083. <
5083 2 3 65 -4 78. 454. 907. <
5083 1 -3 65 4 78. 454. 907. <
5084 2 -3 65 4 78. 7258. 2719. o
5084 1 3 65 -4 78. 7258. 2719. o
5085 2 1 65 -4 344. 454. 907. <
5085 1 -1 65 4 344. 454. 907. <
5086 2 -1 65 4 344. 907. 1815. <
5086 1 1 65 -4 344. 907. 1815. <
5087 2 -1 65 -4 344. 3176. 905. o
5087 1 1 65 4 344. 3176. 905. o
5088 2 1 65 4 344. 1815. 1814. <
5088 1 -1 65 -4 344. 1815. 1814. <
5089 2 -3 65 -4 78. 2722. 1360. <
5089 1 3 65 4 78. 2722. 1360. <
5090 2 3 65 4 78. 454. 1361. <
5090 1 -3 65 -4 78. 454. 1361. <
5091 2 -5 65 -4 11. -454. 2268. <
5091 1 5 65 4 11. -454. 2268. <
5092 2 5 65 4 11. 907. 1361. <
5092 1 -5 65 -4 11. 907. 1361. <
5093 3 -4 -66 6 124. 1361. 1814. <
5093 2 6 66 -4 124. 1361. 1814. <
5093 1 -6 66 4 124. 1361. 1814. <
5094 3 4 -66 -6 126. 1815. 3175. <
5094 2 -6 66 4 126. 1815. 3175. <
5094 1 6 66 -4 126. 1815. 3175. <
5095 3 -4 -66 4 330. 0. 1361. <
5095 2 4 66 -4 330. 0. 1361. <
5095 1 -4 66 4 330. 0. 1361. <
5096 3 4 -66 -4 334. -1815. 3175. <
5096 2 -4 66 4 334. -1815. 3175. <
5096 1 4 66 -4 334. -1815. 3175. <
5097 3 -4 -66 2 859. 1361. 907. <
5097 2 2 66 -4 859. 1361. 907. <
5097 1 -2 66 4 859. 1361. 907. <
5098 3 4 -66 -2 867. 1815. 2268. <
5098 2 -2 66 4 867. 1815. 2268. <
5098 1 2 66 -4 867. 1815. 2268. <
5099 3 -4 -66 0 1003. 1361. 907. <
5099 2 0 66 -4 1003. 1361. 907. <
5099 1 0 66 4 1003. 1361. 907. <
5100 3 4 -66 0 1005. 2268. 1361. <
5100 2 0 66 4 1005. 2268. 1361. <
5100 1 0 66 -4 1005. 2268. 1361. <
5101 3 -4 -66 -2 863. 454. 1361. <
5101 2 -2 66 -4 863. 454. 1361. <
5101 1 2 66 4 863. 454. 1361. <
5102 3 4 -66 2 864. 1361. 1361. <
5102 2 2 66 4 864. 1361. 1361. <
5102 1 -2 66 -4 864. 1361. 1361. <
5103 3 -4 -66 -4 332. 4537. 2267. <
5103 2 -4 66 -4 332. 4537. 2267. <
5103 1 4 66 4 332. 4537. 2267. <
5104 3 4 -66 4 332. 454. 1361. <
5104 2 4 66 4 332. 454. 1361. <
5104 1 -4 66 -4 332. 454. 1361. <
5105 3 -4 -66 -6 125. 907. 1815. <
5105 2 -6 66 -4 125. 907. 1815. <
5105 1 6 66 4 125. 907. 1815. <
5106 3 4 -66 6 125. 454. 1815. <
5106 2 6 66 4 125. 454. 1815. <
5106 1 -6 66 -4 125. 454. 1815. <
5107 2 5 67 -4 747. 1815. 1814. <
5107 1 -5 67 4 747. 1815. 1814. <
5108 2 -5 67 4 747. 7258. 4535. <
5108 1 5 67 -4 747. 7258. 4535. <
5109 2 3 67 -4 2342. 4537. 1359. o
5109 1 -3 67 4 2342. 4537. 1359. o
5110 2 -3 67 4 2343. 6351. 2720. o
5110 1 3 67 -4 2343. 6351. 2720. o
5111 2 1 67 -4 8840. 9073. 907. o
5111 1 -1 67 4 8840. 9073. 907. o
5112 2 -1 67 4 8841. 5898. 1818. o
5112 1 1 67 -4 8841. 5898. 1818. o
5113 2 -1 67 -4 8841. 2268. 1367. <
5113 1 1 67 4 8841. 2268. 1367. <
5114 2 1 67 4 8840. 7258. 1816. o
5114 1 -1 67 -4 8840. 7258. 1816. o
5115 2 -3 67 -4 2343. 3629. 1360. o
5115 1 3 67 4 2343. 3629. 1360. o
5116 2 3 67 4 2342. 1361. 1361. <
5116 1 -3 67 -4 2342. 1361. 1361. <
5117 2 -5 67 -4 747. 2268. 1814. <
5117 1 5 67 4 747. 2268. 1814. <
5118 2 5 67 4 747. 454. 1361. <
5118 1 -5 67 -4 747. 454. 1361. <
5119 3 -4 -68 6 54. 0. 1361. <
5119 2 6 68 -4 54. 0. 1361. <
5119 1 -6 68 4 54. 0. 1361. <
5120 3 4 -68 -6 53. -454. 3629. <
5120 2 -6 68 4 53. -454. 3629. <
5120 1 6 68 -4 53. -454. 3629. <
5121 3 -4 -68 4 190. -454. 1361. <
5121 2 4 68 -4 190. -454. 1361. <
5121 1 -4 68 4 190. -454. 1361. <
5122 3 4 -68 -4 190. 907. 3176. <
5122 2 -4 68 4 190. 907. 3176. <
5122 1 4 68 -4 190. 907. 3176. <
5123 3 -4 -68 2 145. 1815. 907. <
5123 2 2 68 -4 145. 1815. 907. <
5123 1 -2 68 4 145. 1815. 907. <
5124 3 4 -68 -2 144. 0. 2268. <
5124 2 -2 68 4 144. 0. 2268. <
5124 1 2 68 -4 144. 0. 2268. <
5125 3 -4 -68 0 284. 907. 907. <
5125 2 0 68 -4 284. 907. 907. <
5125 1 0 68 4 284. 907. 907. <
5126 3 4 -68 0 285. 3629. 1813. <
5126 2 0 68 4 285. 3629. 1813. <
5126 1 0 68 -4 285. 3629. 1813. <
5127 3 -4 -68 -2 144. 1361. 1361. <
5127 2 -2 68 -4 144. 1361. 1361. <
5127 1 2 68 4 144. 1361. 1361. <
5128 3 4 -68 2 144. 454. 1361. <
5128 2 2 68 4 144. 454. 1361. <
5128 1 -2 68 -4 144. 454. 1361. <
5129 3 -4 -68 -4 190. 3176. 2268. <
5129 2 -4 68 -4 190. 3176. 2268. <
5129 1 4 68 4 190. 3176. 2268. <
5130 3 4 -68 4 190. 907. 1361. <
5130 2 4 68 4 190. 907. 1361. <
5130 1 -4 68 -4 190. 907. 1361. <
5131 3 -4 -68 -6 53. 907. 1815. <
5131 2 -6 68 -4 53. 907. 1815. <
5131 1 6 68 4 53. 907. 1815. <
5132 3 4 -68 6 53. 454. 1815. <
5132 2 6 68 4 53. 454. 1815. <
5132 1 -6 68 -4 53. 454. 1815. <
5133 2 5 69 -4 83. 3176. 1814. <
5133 1 -5 69 4 83. 3176. 1814. <
5134 2 -5 69 4 84. 2722. 3629. <
5134 1 5 69 -4 84. 2722. 3629. <
5135 2 3 69 -4 261. 2268. 1360. <
5135 1 -3 69 4 261. 2268. 1360. <
5136 2 -3 69 4 262. -1361. 2722. <
5136 1 3 69 -4 262. -1361. 2722. <
5137 2 1 69 -4 853. 1361. 907. <
5137 1 -1 69 4 853. 1361. 907. <
5138 2 -1 69 4 853. -907. 1815. <
5138 1 1 69 -4 853. -907. 1815. <
5139 2 -1 69 -4 853. -1361. 1361. <
5139 1 1 69 4 853. -1361. 1361. <
5140 2 1 69 4 853. 1361. 1361. <
5140 1 -1 69 -4 853. 1361. 1361. <
5141 2 -3 69 -4 262. 3176. 1360. o
5141 1 3 69 4 262. 3176. 1360. o
5142 2 3 69 4 261. 1815. 1361. <
5142 1 -3 69 -4 261. 1815. 1361. <
5143 2 -5 69 -4 84. -2268. 1360. <
5143 1 5 69 4 84. -2268. 1360. <
5144 2 5 69 4 83. 454. 1361. <
5144 1 -5 69 -4 83. 454. 1361. <
5145 3 -4 -70 4 255. 1815. 1361. <
5145 2 4 70 -4 255. 1815. 1361. <
5145 1 -4 70 4 255. 1815. 1361. <
5146 3 4 -70 -4 254. 454. 2722. <
5146 2 -4 70 4 254. 454. 2722. <
5146 1 4 70 -4 254. 454. 2722. <
5147 3 -4 -70 2 725. 0. 1361. <
5147 2 2 70 -4 725. 0. 1361. <
5147 1 -2 70 4 725. 0. 1361. <
5148 3 4 -70 -2 722. -454. 2268. <
5148 2 -2 70 4 722. -454. 2268. <
5148 1 2 70 -4 722. -454. 2268. <
5149 3 -4 -70 0 759. 454. 1361. <
5149 2 0 70 -4 759. 454. 1361. <
5149 1 0 70 4 759. 454. 1361. <
5150 3 4 -70 0 755. 3629. 1813. <
5150 2 0 70 4 755. 3629. 1813. <
5150 1 0 70 -4 755. 3629. 1813. <
5151 3 -4 -70 -2 724. 907. 1361. <
5151 2 -2 70 -4 724. 907. 1361. <
5151 1 2 70 4 724. 907. 1361. <
5152 3 4 -70 2 722. -1361. 1361. <
5152 2 2 70 4 722. -1361. 1361. <
5152 1 -2 70 -4 722. -1361. 1361. <
5153 3 -4 -70 -4 254. -2722. 2268. <
5153 2 -4 70 -4 254. -2722. 2268. <
5153 1 4 70 4 254. -2722. 2268. <
5154 3 4 -70 4 254. 907. 1361. <
5154 2 4 70 4 254. 907. 1361. <
5154 1 -4 70 -4 254. 907. 1361. <
5155 2 5 71 -4 21. -454. 1815. <
5155 1 -5 71 4 21. -454. 1815. <
5156 2 -5 71 4 21. 1815. 2722. <
5156 1 5 71 -4 21. 1815. 2722. <
5157 2 3 71 -4 83. -454. 1361. <
5157 1 -3 71 4 83. -454. 1361. <
5158 2 -3 71 4 83. 1361. 2268. <
5158 1 3 71 -4 83. 1361. 2268. <
5159 2 1 71 -4 90. 0. 907. <
5159 1 -1 71 4 90. 0. 907. <
5160 2 -1 71 4 90. 2268. 1814. <
5160 1 1 71 -4 90. 2268. 1814. <
5161 2 -1 71 -4 90. 2722. 1360. <
5161 1 1 71 4 90. 2722. 1360. <
5162 2 1 71 4 90. 454. 1361. <
5162 1 -1 71 -4 90. 454. 1361. <
5163 2 -3 71 -4 83. 2268. 1814. <
5163 1 3 71 4 83. 2268. 1814. <
5164 2 3 71 4 83. 907. 1361. <
5164 1 -3 71 -4 83. 907. 1361. <
5165 2 -5 71 -4 21. 2268. 1360. <
5165 1 5 71 4 21. 2268. 1360. <
5166 2 5 71 4 21. 454. 1815. <
5166 1 -5 71 -4 21. 454. 1815. <
5167 3 -4 -72 4 8267. 9073. 1814. o
5167 2 4 72 -4 8267. 9073. 1814. o
5167 1 -4 72 4 8267. 9073. 1814. o
5168 3 4 -72 -4 8291. 6351. 2723. o
5168 2 -4 72 4 8291. 6351. 2723. o
5168 1 4 72 -4 8291. 6351. 2723. o
5169 3 -4 -72 2 17744. 20414. 1351. o
5169 2 2 72 -4 17744. 20414. 1351. o
5169 1 -2 72 4 17744. 20414. 1351. o
5170 3 4 -72 -2 17754. 9073. 2280. o
5170 2 -2 72 4 17754. 9073. 2280. o
5170 1 2 72 -4 17754. 9073. 2280. o
5171 3 -4 -72 0 21364. 17693. 1825. o
5171 2 0 72 -4 21364. 17693. 1825. o
5171 1 0 72 4 21364. 17693. 1825. o
5172 3 4 -72 0 21354. 15878. 2280. o
5172 2 0 72 4 21354. 15878. 2280. o
5172 1 0 72 -4 21354. 15878. 2280. o
5173 3 -4 -72 -2 17757. 14517. 1822. o
5173 2 -2 72 -4 17757. 14517. 1822. o
5173 1 2 72 4 17757. 14517. 1822. o
5174 3 4 -72 2 17740. 22683. 1799. o
5174 2 2 72 4 17740. 22683. 1799. o
5174 1 -2 72 -4 17740. 22683. 1799. o
5175 3 -4 -72 -4 8280. 4083. 2271. <
5175 2 -4 72 -4 8280. 4083. 2271. <
5175 1 4 72 4 8280. 4083. 2271. <
5176 3 4 -72 4 8278. 14517. 1803. o
5176 2 4 72 4 8278. 14517. 1803. o
5176 1 -4 72 -4 8278. 14517. 1803. o
5177 2 5 73 -4 3. 1361. 1361. <
5177 1 -5 73 4 3. 1361. 1361. <
5178 2 -5 73 4 3. 4537. 2267. <
5178 1 5 73 -4 3. 4537. 2267. <
5179 2 3 73 -4 22. 2268. 1360. <
5179 1 -3 73 4 22. 2268. 1360. <
5180 2 -3 73 4 23. 1361. 1814. <
5180 1 3 73 -4 23. 1361. 1814. <
5181 2 1 73 -4 119. 907. 1361. <
5181 1 -1 73 4 119. 907. 1361. <
5182 2 -1 73 4 119. -454. 1815. <
5182 1 1 73 -4 119. -454. 1815. <
5183 2 -1 73 -4 119. 0. 1361. <
5183 1 1 73 4 119. 0. 1361. <
5184 2 1 73 4 119. 454. 1361. <
5184 1 -1 73 -4 119. 454. 1361. <
5185 2 -3 73 -4 23. 1815. 2268. <
5185 1 3 73 4 23. 1815. 2268. <
5186 2 3 73 4 22. -454. 907. <
5186 1 -3 73 -4 22. -454. 907. <
5187 2 -5 73 -4 3. 1815. 907. <
5187 1 5 73 4 3. 1815. 907. <
5188 2 5 73 4 3. 0. 1361. <
5188 1 -5 73 -4 3. 0. 1361. <
5189 3 -4 -74 4 5417. 1361. 2270. <
5189 2 4 74 -4 5417. 1361. 2270. <
5189 1 -4 74 4 5417. 1361. 2270. <
5190 3 4 -74 -4 5444. 454. 2270. <
5190 2 -4 74 4 5444. 454. 2270. <
5190 1 4 74 -4 5444. 454. 2270. <
5191 3 -4 -74 2 12104. 13610. 1357. o
5191 2 2 74 -4 12104. 13610. 1357. o
5191 1 -2 74 4 12104. 13610. 1357. o
5192 3 4 -74 -2 12161. 6351. 1822. o
5192 2 -2 74 4 12161. 6351. 1822. o
5192 1 2 74 -4 12161. 6351. 1822. o
5193 3 -4 -74 0 15117. 16332. 1812. o
5193 2 0 74 -4 15117. 16332. 1812. o
5193 1 0 74 4 15117. 16332. 1812. o
5194 3 4 -74 0 15161. 19054. 1804. o
5194 2 0 74 4 15161. 19054. 1804. o
5194 1 0 74 -4 15161. 19054. 1804. o
5195 3 -4 -74 -2 12125. 12702. 1814. o
5195 2 -2 74 -4 12125. 12702. 1814. o
5195 1 2 74 4 12125. 12702. 1814. o
5196 3 4 -74 2 12140. 17239. 1803. o
5196 2 2 74 4 12140. 17239. 1803. o
5196 1 -2 74 -4 12140. 17239. 1803. o
5197 3 -4 -74 -4 5432. 2722. 1816. <
5197 2 -4 74 -4 5432. 2722. 1816. <
5197 1 4 74 4 5432. 2722. 1816. <
5198 3 4 -74 4 5430. 6805. 1359. o
5198 2 4 74 4 5430. 6805. 1359. o
5198 1 -4 74 -4 5430. 6805. 1359. o
5199 2 3 75 -4 33. 3176. 1814. <
5199 1 -3 75 4 33. 3176. 1814. <
5200 2 -3 75 4 33. 3176. 1814. <
5200 1 3 75 -4 33. 3176. 1814. <
5201 2 1 75 -4 123. 2268. 1360. <
5201 1 -1 75 4 123. 2268. 1360. <
5202 2 -1 75 4 123. 907. 1815. <
5202 1 1 75 -4 123. 907. 1815. <
5203 2 -1 75 -4 123. 2268. 1814. <
5203 1 1 75 4 123. 2268. 1814. <
5204 2 1 75 4 123. 454. 1361. <
5204 1 -1 75 -4 123. 454. 1361. <
5205 2 -3 75 -4 33. 1361. 1814. <
5205 1 3 75 4 33. 1361. 1814. <
5206 2 3 75 4 33. 454. 907. <
5206 1 -3 75 -4 33. 454. 907. <
5207 3 -4 -76 4 53. 3176. 1360. o
5207 2 4 76 -4 53. 3176. 1360. o
5207 1 -4 76 4 53. 3176. 1360. o
5208 3 4 -76 -4 54. 1815. 1814. <
5208 2 -4 76 4 54. 1815. 1814. <
5208 1 4 76 -4 54. 1815. 1814. <
5209 3 -4 -76 2 165. 1361. 1814. <
5209 2 2 76 -4 165. 1361. 1814. <
5209 1 -2 76 4 165. 1361. 1814. <
5210 3 4 -76 -2 166. -1361. 1361. <
5210 2 -2 76 4 166. -1361. 1361. <
5210 1 2 76 -4 166. -1361. 1361. <
5211 3 -4 -76 0 59. 1361. 1361. <
5211 2 0 76 -4 59. 1361. 1361. <
5211 1 0 76 4 59. 1361. 1361. <
5212 3 4 -76 0 63. -907. 1815. <
5212 2 0 76 4 63. -907. 1815. <
5212 1 0 76 -4 63. -907. 1815. <
5213 3 -4 -76 -2 165. 2268. 1814. <
5213 2 -2 76 -4 165. 2268. 1814. <
5213 1 2 76 4 165. 2268. 1814. <
5214 3 4 -76 2 166. 454. 1815. <
5214 2 2 76 4 166. 454. 1815. <
5214 1 -2 76 -4 166. 454. 1815. <
5215 3 -4 -76 -4 54. 2722. 1360. <
5215 2 -4 76 -4 54. 2722. 1360. <
5215 1 4 76 4 54. 2722. 1360. <
5216 3 4 -76 4 54. 0. 1361. <
5216 2 4 76 4 54. 0. 1361. <
5216 1 -4 76 -4 54. 0. 1361. <
5217 2 3 77 -4 77. 3629. 1813. <
5217 1 -3 77 4 77. 3629. 1813. <
5218 2 -3 77 4 77. -907. 1815. <
5218 1 3 77 -4 77. -907. 1815. <
5219 2 1 77 -4 221. 907. 1815. <
5219 1 -1 77 4 221. 907. 1815. <
5220 2 -1 77 4 221. 2722. 1814. <
5220 1 1 77 -4 221. 2722. 1814. <
5221 2 -1 77 -4 221. 4537. 1813. o
5221 1 1 77 4 221. 4537. 1813. o
5222 2 1 77 4 221. 1361. 1361. <
5222 1 -1 77 -4 221. 1361. 1361. <
5223 2 -3 77 -4 77. 2268. 1360. <
5223 1 3 77 4 77. 2268. 1360. <
5224 2 3 77 4 77. -907. 1361. <
5224 1 -3 77 -4 77. -907. 1361. <
5225 3 -4 -78 4 67. 0. 1361. <
5225 2 4 78 -4 67. 0. 1361. <
5225 1 -4 78 4 67. 0. 1361. <
5226 3 4 -78 -4 66. -454. 1815. <
5226 2 -4 78 4 66. -454. 1815. <
5226 1 4 78 -4 66. -454. 1815. <
5227 3 -4 -78 2 90. 1361. 1814. <
5227 2 2 78 -4 90. 1361. 1814. <
5227 1 -2 78 4 90. 1361. 1814. <
5228 3 4 -78 -2 87. 907. 1361. <
5228 2 -2 78 4 87. 907. 1361. <
5228 1 2 78 -4 87. 907. 1361. <
5229 3 -4 -78 0 100. 2268. 1814. <
5229 2 0 78 -4 100. 2268. 1814. <
5229 1 0 78 4 100. 2268. 1814. <
5230 3 4 -78 0 98. 907. 1815. <
5230 2 0 78 4 98. 907. 1815. <
5230 1 0 78 -4 98. 907. 1815. <
5231 3 -4 -78 -2 89. 2268. 1814. <
5231 2 -2 78 -4 89. 2268. 1814. <
5231 1 2 78 4 89. 2268. 1814. <
5232 3 4 -78 2 88. -1815. 1361. <
5232 2 2 78 4 88. -1815. 1361. <
5232 1 -2 78 -4 88. -1815. 1361. <
5233 3 -4 -78 -4 67. 1361. 907. <
5233 2 -4 78 -4 67. 1361. 907. <
5233 1 4 78 4 67. 1361. 907. <
5234 3 4 -78 4 67. 1361. 1361. <
5234 2 4 78 4 67. 1361. 1361. <
5234 1 -4 78 -4 67. 1361. 1361. <
5235 2 3 79 -4 786. 907. 1361. <
5235 1 -3 79 4 786. 907. 1361. <
5236 2 -3 79 4 786. -1815. 1814. <
5236 1 3 79 -4 786. -1815. 1814. <
5237 2 1 79 -4 1775. 3176. 1814. <
5237 1 -1 79 4 1775. 3176. 1814. <
5238 2 -1 79 4 1775. 454. 1361. <
5238 1 1 79 -4 1775. 454. 1361. <
5239 2 -1 79 -4 1775. 1815. 2268. <
5239 1 1 79 4 1775. 1815. 2268. <
5240 2 1 79 4 1775. 2268. 1361. <
5240 1 -1 79 -4 1775. 2268. 1361. <
5241 2 -3 79 -4 786. 907. 1361. <
5241 1 3 79 4 786. 907. 1361. <
5242 2 3 79 4 786. 454. 1361. <
5242 1 -3 79 -4 786. 454. 1361. <
5243 3 -4 -80 2 14. 4990. 1812. o
5243 2 2 80 -4 14. 4990. 1812. o
5243 1 -2 80 4 14. 4990. 1812. o
5244 3 4 -80 -2 14. 454. 1361. <
5244 2 -2 80 4 14. 454. 1361. <
5244 1 2 80 -4 14. 454. 1361. <
5245 3 -4 -80 0 36. 454. 1815. <
5245 2 0 80 -4 36. 454. 1815. <
5245 1 0 80 4 36. 454. 1815. <
5246 3 4 -80 0 36. -1361. 1361. <
5246 2 0 80 4 36. -1361. 1361. <
5246 1 0 80 -4 36. -1361. 1361. <
5247 3 -4 -80 -2 14. 1815. 1361. <
5247 2 -2 80 -4 14. 1815. 1361. <
5247 1 2 80 4 14. 1815. 1361. <
5248 3 4 -80 2 14. 0. 1361. <
5248 2 2 80 4 14. 0. 1361. <
5248 1 -2 80 -4 14. 0. 1361. <
5249 2 3 81 -4 342. 454. 1361. <
5249 1 -3 81 4 342. 454. 1361. <
5250 2 -3 81 4 341. 2722. 1360. <
5250 1 3 81 -4 341. 2722. 1360. <
5251 2 1 81 -4 796. 907. 1815. <
5251 1 -1 81 4 796. 907. 1815. <
5252 2 -1 81 4 796. 0. 1361. <
5252 1 1 81 -4 796. 0. 1361. <
5253 2 -1 81 -4 796. 907. 1361. <
5253 1 1 81 4 796. 907. 1361. <
5254 2 1 81 4 796. -907. 1361. <
5254 1 -1 81 -4 796. -907. 1361. <
5255 2 -3 81 -4 341. 2268. 1360. <
5255 1 3 81 4 341. 2268. 1360. <
5256 2 3 81 4 342. -454. 1815. <
5256 1 -3 81 -4 342. -454. 1815. <
5257 3 -4 -82 2 201. -907. 1361. <
5257 2 2 82 -4 201. -907. 1361. <
5257 1 -2 82 4 201. -907. 1361. <
5258 3 4 -82 -2 202. 907. 1361. <
5258 2 -2 82 4 202. 907. 1361. <
5258 1 2 82 -4 202. 907. 1361. <
5259 3 -4 -82 0 180. -907. 1361. <
5259 2 0 82 -4 180. -907. 1361. <
5259 1 0 82 4 180. -907. 1361. <
5260 3 4 -82 0 182. 0. 1361. <
5260 2 0 82 4 182. 0. 1361. <
5260 1 0 82 -4 182. 0. 1361. <
5261 3 -4 -82 -2 201. 907. 1361. <
5261 2 -2 82 -4 201. 907. 1361. <
5261 1 2 82 4 201. 907. 1361. <
5262 3 4 -82 2 202. -1815. 1361. <
5262 2 2 82 4 202. -1815. 1361. <
5262 1 -2 82 -4 202. -1815. 1361. <
5263 2 1 83 -4 56. 0. 1361. <
5263 1 -1 83 4 56. 0. 1361. <
5264 2 -1 83 4 56. -1361. 1361. <
5264 1 1 83 -4 56. -1361. 1361. <
5265 2 -1 83 -4 56. 907. 1361. <
5265 1 1 83 4 56. 907. 1361. <
5266 2 1 83 4 56. 1361. 1361. <
5266 1 -1 83 -4 56. 1361. 1361. <
5267 3 -4 -84 0 2339. 2268. 1361. <
5267 2 0 84 -4 2339. 2268. 1361. <
5267 1 0 84 4 2339. 2268. 1361. <
5268 3 4 -84 0 2344. 1361. 1361. <
5268 2 0 84 4 2344. 1361. 1361. <
5268 1 0 84 -4 2344. 1361. 1361. <
5269 2 1 85 -4 24. 907. 1361. <
5269 1 -1 85 4 24. 907. 1361. <
5270 2 -1 85 4 24. 907. 1361. <
5270 1 1 85 -4 24. 907. 1361. <
5271 2 -1 85 -4 24. -907. 1361. <
5271 1 1 85 4 24. -907. 1361. <
5272 2 1 85 4 24. -907. 1361. <
5272 1 -1 85 -4 24. -907. 1361. <
5273 3 -5 -1 9 1812. 3629. 1814. <
5273 2 9 1 -5 1812. 3629. 1814. <
5273 1 -9 1 5 1812. 3629. 1814. <
5274 3 -5 -1 7 91105. 73492. 2856. o
5274 2 7 1 -5 91105. 73492. 2856. o
5274 1 -7 1 5 91105. 73492. 2856. o
5275 3 5 -1 -7 90419. 98897. 1191. o
5275 2 -7 1 5 90419. 98897. 1191. o
5275 1 7 1 -5 90419. 98897. 1191. o
5276 3 -5 -1 3 538369. 567523. 11194. o
5276 2 3 1 -5 538369. 567523. 11194. o
5276 1 -3 1 5 538369. 567523. 11194. o
5277 3 5 -1 -3 536713. 601548. 11313. o
5277 2 -3 1 5 536713. 601548. 11313. o
5277 1 3 1 -5 536713. 601548. 11313. o
5278 3 -5 -1 1 405016. 414641. 1087. o
5278 2 1 1 -5 405016. 414641. 1087. o
5278 1 -1 1 5 405016. 414641. 1087. o
5279 3 5 -1 -1 408356. 423261. 8463. o
5279 2 -1 1 5 408356. 423261. 8463. o
5279 1 1 1 -5 408356. 423261. 8463. o
5280 3 -5 -1 -1 407556. 412373. 1496. o
5280 2 -1 1 -5 407556. 412373. 1496. o
5280 1 1 1 5 407556. 412373. 1496. o
5281 3 5 -1 1 405816. 427344. 8457. o
5281 2 1 1 5 405816. 427344. 8457. o
5281 1 -1 1 -5 405816. 427344. 8457. o
5282 3 -5 -1 -3 537105. 556182. 11020. o
5282 2 -3 1 -5 537105. 556182. 11020. o
5282 1 3 1 5 537105. 556182. 11020. o
5283 3 5 -1 3 537977. 590206. 11553. o
5283 2 3 1 5 537977. 590206. 11553. o
5283 1 -3 1 -5 537977. 590206. 11553. o
5284 3 -5 -1 -5 40980. 50356. 766. o
5284 2 -5 1 -5 40980. 50356. 766. o
5284 1 5 1 5 40980. 50356. 766. o
5285 3 5 -1 7 90684. 83926. 2336. o
5285 2 7 1 5 90684. 83926. 2336. o
5285 1 -7 1 -5 90684. 83926. 2336. o
5286 3 -5 -1 -9 1906. 907. 1361. <
5286 2 -9 1 -5 1906. 907. 1361. <
5286 1 9 1 5 1906. 907. 1361. <
5287 2 8 2 -5 253. 454. 907. <
5287 1 -8 2 5 253. 454. 907. <
5288 2 -8 2 5 253. 907. 453. <
5288 1 8 2 -5 253. 907. 453. <
5289 2 6 2 -5 586. 454. 454. <
5289 1 -6 2 5 586. 454. 454. <
5290 2 -6 2 5 588. -454. 454. <
5290 1 6 2 -5 588. -454. 454. <
5291 2 4 2 -5 752. 907. 907. <
5291 1 -4 2 5 752. 907. 907. <
5292 2 -4 2 5 747. -454. 454. <
5292 1 4 2 -5 747. -454. 454. <
5293 2 2 2 -5 335. 454. 454. <
5293 1 -2 2 5 335. 454. 454. <
5294 2 -2 2 5 339. 0. 454. <
5294 1 2 2 -5 339. 0. 454. <
5295 2 0 2 -5 632. 907. 454. <
5295 1 0 2 5 632. 907. 454. <
5296 2 0 2 5 632. 907. 454. <
5296 1 0 2 -5 632. 907. 454. <
5297 2 -2 2 -5 339. 454. 454. <
5297 1 2 2 5 339. 454. 454. <
5298 2 2 2 5 335. 907. 453. <
5298 1 -2 2 -5 335. 907. 453. <
5299 2 -4 2 -5 747. 0. 454. <
5299 1 4 2 5 747. 0. 454. <
5300 2 4 2 5 752. 454. 454. <
5300 1 -4 2 -5 752. 454. 454. <
5301 2 -6 2 -5 588. 907. 454. <
5301 1 6 2 5 588. 907. 454. <
5302 2 6 2 5 586. 454. 907. <
5302 1 -6 2 -5 586. 454. 907. <
5303 2 -8 2 -5 253. 907. 907. <
5303 1 8 2 5 253. 907. 907. <
5304 3 -5 -3 9 82. 1815. 1361. <
5304 2 9 3 -5 82. 1815. 1361. <
5304 1 -9 3 5 82. 1815. 1361. <
5305 3 5 -3 -9 116. 454. 454. <
5305 2 -9 3 5 116. 454. 454. <
5305 1 9 3 -5 116. 454. 454. <
5306 3 -5 -3 7 7480. 0. 1817. <
5306 2 7 3 -5 7480. 0. 1817. <
5306 1 -7 3 5 7480. 0. 1817. <
5307 3 5 -3 -7 7416. 10434. 899. o
5307 2 -7 3 5 7416. 10434. 899. o
5307 1 7 3 -5 7416. 10434. 899. o
5308 3 -5 -3 3 22414. 50356. 460. o
5308 2 3 3 -5 22414. 50356. 460. o
5308 1 -3 3 5 22414. 50356. 460. o
5309 3 5 -3 -3 22124. 41283. 683. o
5309 2 -3 3 5 22124. 41283. 683. o
5309 1 3 3 -5 22124. 41283. 683. o
5310 3 -5 -3 1 19576. 17239. 478. o
5310 2 1 3 -5 19576. 17239. 478. o
5310 1 -1 3 5 19576. 17239. 478. o
5311 3 5 -3 -1 19939. 26312. 352. o
5311 2 -1 3 5 19939. 26312. 352. o
5311 1 1 3 -5 19939. 26312. 352. o
5312 3 -5 -3 -1 19917. 20868. 442. o
5312 2 -1 3 -5 19917. 20868. 442. o
5312 1 1 3 5 19917. 20868. 442. o
5313 3 5 -3 1 19597. 26312. 346. o
5313 2 1 3 5 19597. 26312. 346. o
5313 1 -1 3 -5 19597. 26312. 346. o
5314 3 -5 -3 -3 22177. 41283. 684. o
5314 2 -3 3 -5 22177. 41283. 684. o
5314 1 3 3 5 22177. 41283. 684. o
5315 3 5 -3 3 22361. 23590. 1355. o
5315 2 3 3 5 22361. 23590. 1355. o
5315 1 -3 3 -5 22361. 23590. 1355. o
5316 3 -5 -3 -5 2605. 10434. 889. o
5316 2 -5 3 -5 2605. 10434. 889. o
5316 1 5 3 5 2605. 10434. 889. o
5317 3 5 -3 5 2598. 6805. 1357. o
5317 2 5 3 5 2598. 6805. 1357. o
5317 1 -5 3 -5 2598. 6805. 1357. o
5318 3 5 -3 7 7431. 4990. 1364. o
5318 2 7 3 5 7431. 4990. 1364. o
5318 1 -7 3 -5 7431. 4990. 1364. o
5319 3 -5 -3 -9 89. 2268. 1360. <
5319 2 -9 3 -5 89. 2268. 1360. <
5319 1 9 3 5 89. 2268. 1360. <
5320 2 8 4 -5 115. 1361. 907. <
5320 1 -8 4 5 115. 1361. 907. <
5321 2 -8 4 5 118. 0. 454. <
5321 1 8 4 -5 118. 0. 454. <
5322 2 -6 4 5 759. 1815. 907. <
5322 1 6 4 -5 759. 1815. 907. <
5323 2 -4 4 5 414. 454. 454. <
5323 1 4 4 -5 414. 454. 454. <
5324 2 2 4 -5 3142. 6351. 444. o
5324 1 -2 4 5 3142. 6351. 444. o
5325 2 -2 4 5 3147. 3629. 453. o
5325 1 2 4 -5 3147. 3629. 453. o
5326 2 0 4 -5 2398. 4537. 449. o
5326 1 0 4 5 2398. 4537. 449. o
5327 2 0 4 5 2398. 5444. 446. o
5327 1 0 4 -5 2398. 5444. 446. o
5328 2 -2 4 -5 3147. 5444. 447. o
5328 1 2 4 5 3147. 5444. 447. o
5329 2 2 4 5 3142. 6805. 441. o
5329 1 -2 4 -5 3142. 6805. 441. o
5330 2 -4 4 -5 414. 454. 454. <
5330 1 4 4 5 414. 454. 454. <
5331 2 4 4 5 405. 454. 454. <
5331 1 -4 4 -5 405. 454. 454. <
5332 2 -6 4 -5 759. 0. 454. <
5332 1 6 4 5 759. 0. 454. <
5333 2 6 4 5 759. -454. 907. <
5333 1 -6 4 -5 759. -454. 907. <
5334 2 -8 4 -5 118. 907. 907. <
5334 1 8 4 5 118. 907. 907. <
5335 3 -5 -5 9 117. 0. 1815. <
5335 2 9 5 -5 117. 0. 1815. <
5335 1 -9 5 5 117. 0. 1815. <
5336 3 5 -5 -9 127. 907. 453. <
5336 2 -9 5 5 127. 907. 453. <
5336 1 9 5 -5 127. 907. 453. <
5337 3 -5 -5 7 2126. 1815. 907. <
5337 2 7 5 -5 2126. 1815. 907. <
5337 1 -7 5 5 2126. 1815. 907. <
5338 3 5 -5 -7 2100. 2722. 907. o
5338 2 -7 5 5 2100. 2722. 907. o
5338 1 7 5 -5 2100. 2722. 907. o
5339 3 5 -5 -5 684. 907. 454. <
5339 2 -5 5 5 684. 907. 454. <
5339 1 5 5 -5 684. 907. 454. <
5340 3 -5 -5 3 2377. 3629. 451. o
5340 2 3 5 -5 2377. 3629. 451. o
5340 1 -3 5 5 2377. 3629. 451. o
5341 3 5 -5 -3 2311. 3629. 451. o
5341 2 -3 5 5 2311. 3629. 451. o
5341 1 3 5 -5 2311. 3629. 451. o
5342 3 -5 -5 1 193. 907. 453. <
5342 2 1 5 -5 193. 907. 453. <
5342 1 -1 5 5 193. 907. 453. <
5343 3 5 -5 -1 201. 1361. 453. o
5343 2 -1 5 5 201. 1361. 453. o
5343 1 1 5 -5 201. 1361. 453. o
5344 3 -5 -5 -1 184. 1815. 452. o
5344 2 -1 5 -5 184. 1815. 452. o
5344 1 1 5 5 184. 1815. 452. o
5345 3 5 -5 1 210. 907. 453. <
5345 2 1 5 5 210. 907. 453. <
5345 1 -1 5 -5 210. 907. 453. <
5346 3 -5 -5 -3 2334. 3176. 452. o
5346 2 -3 5 -5 2334. 3176. 452. o
5346 1 3 5 5 2334. 3176. 452. o
5347 3 5 -5 3 2353. 0. 908. <
5347 2 3 5 5 2353. 0. 908. <
5347 1 -3 5 -5 2353. 0. 908. <
5348 3 -5 -5 -5 674. 1361. 907. <
5348 2 -5 5 -5 674. 1361. 907. <
5348 1 5 5 5 674. 1361. 907. <
5349 3 -5 -5 -7 2112. 3176. 906. o
5349 2 -7 5 -5 2112. 3176. 906. o
5349 1 7 5 5 2112. 3176. 906. o
5350 3 5 -5 7 2114. 2722. 907. o
5350 2 7 5 5 2114. 2722. 907. o
5350 1 -7 5 -5 2114. 2722. 907. o
5351 3 -5 -5 -9 124. 907. 1815. <
5351 2 -9 5 -5 124. 907. 1815. <
5351 1 9 5 5 124. 907. 1815. <
5352 2 8 6 -5 145. 1361. 907. <
5352 1 -8 6 5 145. 1361. 907. <
5353 2 -8 6 5 145. 907. 453. <
5353 1 8 6 -5 145. 907. 453. <
5354 2 -6 6 5 5190. 5444. 907. o
5354 1 6 6 -5 5190. 5444. 907. o
5355 2 -4 6 5 4680. 5444. 451. o
5355 1 4 6 -5 4680. 5444. 451. o
5356 2 2 6 -5 169361. 186906. 397. o
5356 1 -2 6 5 169361. 186906. 397. o
5357 2 -2 6 5 169366. 187360. 3623. o
5357 1 2 6 -5 169366. 187360. 3623. o
5358 2 0 6 -5 88569. 94814. 717. o
5358 1 0 6 5 88569. 94814. 717. o
5359 2 0 6 5 88569. 103887. 127. o
5359 1 0 6 -5 88569. 103887. 127. o
5360 2 -2 6 -5 169366. 184638. 624. o
5360 1 2 6 5 169366. 184638. 624. o
5361 2 2 6 5 169361. 190535. 3782. o
5361 1 -2 6 -5 169361. 190535. 3782. o
5362 2 -4 6 -5 4680. 4083. 455. o
5362 1 4 6 5 4680. 4083. 455. o
5363 2 4 6 5 4680. 4083. 908. o
5363 1 -4 6 -5 4680. 4083. 908. o
5364 2 -6 6 -5 5190. 4083. 909. o
5364 1 6 6 5 5190. 4083. 909. o
5365 2 6 6 5 5188. 5444. 1361. o
5365 1 -6 6 -5 5188. 5444. 1361. o
5366 2 -8 6 -5 145. 907. 907. <
5366 1 8 6 5 145. 907. 907. <
5367 3 -5 -7 9 96. -907. 1815. <
5367 2 9 7 -5 96. -907. 1815. <
5367 1 -9 7 5 96. -907. 1815. <
5368 3 5 -7 -9 108. 454. 454. <
5368 2 -9 7 5 108. 454. 454. <
5368 1 9 7 -5 108. 454. 454. <
5369 3 -5 -7 7 2319. 907. 908. <
5369 2 7 7 -5 2319. 907. 908. <
5369 1 -7 7 5 2319. 907. 908. <
5370 3 5 -7 -7 2300. 2268. 907. o
5370 2 -7 7 5 2300. 2268. 907. o
5370 1 7 7 -5 2300. 2268. 907. o
5371 3 5 -7 -5 1102. 1361. 453. o
5371 2 -5 7 5 1102. 1361. 453. o
5371 1 5 7 -5 1102. 1361. 453. o
5372 3 -5 -7 3 4821. 8166. 900. o
5372 2 3 7 -5 4821. 8166. 900. o
5372 1 -3 7 5 4821. 8166. 900. o
5373 3 5 -7 -3 4792. 6805. 446. o
5373 2 -3 7 5 4792. 6805. 446. o
5373 1 3 7 -5 4792. 6805. 446. o
5374 3 -5 -7 1 10604. 9980. 457. o
5374 2 1 7 -5 10604. 9980. 457. o
5374 1 -1 7 5 10604. 9980. 457. o
5375 3 5 -7 -1 10674. 10434. 455. o
5375 2 -1 7 5 10674. 10434. 455. o
5375 1 1 7 -5 10674. 10434. 455. o
5376 3 -5 -7 -1 10680. 10434. 455. o
5376 2 -1 7 -5 10680. 10434. 455. o
5376 1 1 7 5 10680. 10434. 455. o
5377 3 5 -7 1 10598. 11341. 449. o
5377 2 1 7 5 10598. 11341. 449. o
5377 1 -1 7 -5 10598. 11341. 449. o
5378 3 -5 -7 -3 4812. 6805. 446. o
5378 2 -3 7 -5 4812. 6805. 446. o
5378 1 3 7 5 4812. 6805. 446. o
5379 3 5 -7 3 4800. 5444. 906. o
5379 2 3 7 5 4800. 5444. 906. o
5379 1 -3 7 -5 4800. 5444. 906. o
5380 3 -5 -7 -5 1074. 907. 454. <
5380 2 -5 7 -5 1074. 907. 454. <
5380 1 5 7 5 1074. 907. 454. <
5381 3 -5 -7 -7 2308. 1815. 454. o
5381 2 -7 7 -5 2308. 1815. 454. o
5381 1 7 7 5 2308. 1815. 454. o
5382 3 5 -7 7 2311. 2268. 1361. <
5382 2 7 7 5 2311. 2268. 1361. <
5382 1 -7 7 -5 2311. 2268. 1361. <
5383 3 -5 -7 -9 102. 907. 1815. <
5383 2 -9 7 -5 102. 907. 1815. <
5383 1 9 7 5 102. 907. 1815. <
5384 2 8 8 -5 437. 454. 1361. <
5384 1 -8 8 5 437. 454. 1361. <
5385 2 -8 8 5 441. 1815. 907. <
5385 1 8 8 -5 441. 1815. 907. <
5386 2 6 8 -5 1749. 1815. 907. <
5386 1 -6 8 5 1749. 1815. 907. <
5387 2 -6 8 5 1731. 907. 454. <
5387 1 6 8 -5 1731. 907. 454. <
5388 2 -4 8 5 132. 907. 453. <
5388 1 4 8 -5 132. 907. 453. <
5389 2 2 8 -5 6977. 6805. 454. o
5389 1 -2 8 5 6977. 6805. 454. o
5390 2 -2 8 5 6948. 9527. 440. o
5390 1 2 8 -5 6948. 9527. 440. o
5391 2 0 8 -5 15. 907. 453. <
5391 1 0 8 5 15. 907. 453. <
5392 2 0 8 5 15. 907. 453. <
5392 1 0 8 -5 15. 907. 453. <
5393 2 -2 8 -5 6948. 8166. 448. o
5393 1 2 8 5 6948. 8166. 448. o
5394 2 2 8 5 6977. 8166. 448. o
5394 1 -2 8 -5 6977. 8166. 448. o
5395 2 -4 8 -5 132. 907. 453. <
5395 1 4 8 5 132. 907. 453. <
5396 2 4 8 5 129. 454. 907. <
5396 1 -4 8 -5 129. 454. 907. <
5397 2 -6 8 -5 1731. 0. 908. <
5397 1 6 8 5 1731. 0. 908. <
5398 2 6 8 5 1749. 907. 1361. <
5398 1 -6 8 -5 1749. 907. 1361. <
5399 2 -8 8 -5 441. 907. 907. <
5399 1 8 8 5 441. 907. 907. <
5400 3 -5 -9 9 88. 2722. 1814. <
5400 2 9 9 -5 88. 2722. 1814. <
5400 1 -9 9 5 88. 2722. 1814. <
5401 3 5 -9 -9 119. 907. 453. <
5401 2 -9 9 5 119. 907. 453. <
5401 1 9 9 -5 119. 907. 453. <
5402 3 -5 -9 7 7611. 7258. 1815. o
5402 2 7 9 -5 7611. 7258. 1815. o
5402 1 -7 9 5 7611. 7258. 1815. o
5403 3 5 -9 -7 7551. 7258. 908. o
5403 2 -7 9 5 7551. 7258. 908. o
5403 1 7 9 -5 7551. 7258. 908. o
5404 3 -5 -9 5 4834. 4083. 908. o
5404 2 5 9 -5 4834. 4083. 908. o
5404 1 -5 9 5 4834. 4083. 908. o
5405 3 5 -9 -5 4983. 4990. 454. o
5405 2 -5 9 5 4983. 4990. 454. o
5405 1 5 9 -5 4983. 4990. 454. o
5406 3 5 -9 -3 36836. 39014. 882. o
5406 2 -3 9 5 36836. 39014. 882. o
5406 1 3 9 -5 36836. 39014. 882. o
5407 3 -5 -9 1 39341. 40375. 895. o
5407 2 1 9 -5 39341. 40375. 895. o
5407 1 -1 9 5 39341. 40375. 895. o
5408 3 5 -9 -1 39750. 38107. 490. o
5408 2 -1 9 5 39750. 38107. 490. o
5408 1 1 9 -5 39750. 38107. 490. o
5409 3 -5 -9 -1 39760. 39014. 916. o
5409 2 -1 9 -5 39760. 39014. 916. o
5409 1 1 9 5 39760. 39014. 916. o
5410 3 5 -9 1 39332. 41283. 404. o
5410 2 1 9 5 39332. 41283. 404. o
5410 1 -1 9 -5 39332. 41283. 404. o
5411 3 -5 -9 -3 36903. 39468. 878. o
5411 2 -3 9 -5 36903. 39468. 878. o
5411 1 3 9 5 36903. 39468. 878. o
5412 3 5 -9 3 37062. 43551. 1307. o
5412 2 3 9 5 37062. 43551. 1307. o
5412 1 -3 9 -5 37062. 43551. 1307. o
5413 3 -5 -9 -5 4913. 6351. 1359. o
5413 2 -5 9 -5 4913. 6351. 1359. o
5413 1 5 9 5 4913. 6351. 1359. o
5414 3 5 -9 5 4904. 5444. 1360. o
5414 2 5 9 5 4904. 5444. 1360. o
5414 1 -5 9 -5 4904. 5444. 1360. o
5415 3 -5 -9 -7 7601. 15424. 877. o
5415 2 -7 9 -5 7601. 15424. 877. o
5415 1 7 9 5 7601. 15424. 877. o
5416 3 5 -9 7 7561. 907. 1365. <
5416 2 7 9 5 7561. 907. 1365. <
5416 1 -7 9 -5 7561. 907. 1365. <
5417 3 -5 -9 -9 89. 2268. 1360. <
5417 2 -9 9 -5 89. 2268. 1360. <
5417 1 9 9 5 89. 2268. 1360. <
5418 2 8 10 -5 453. 907. 907. <
5418 1 -8 10 5 453. 907. 907. <
5419 2 -8 10 5 453. 454. 907. <
5419 1 8 10 -5 453. 454. 907. <
5420 2 6 10 -5 1527. 907. 908. <
5420 1 -6 10 5 1527. 907. 908. <
5421 2 -6 10 5 1528. 1361. 454. o
5421 1 6 10 -5 1528. 1361. 454. o
5422 2 -4 10 5 514. 454. 454. <
5422 1 4 10 -5 514. 454. 454. <
5423 2 2 10 -5 6753. 6351. 455. o
5423 1 -2 10 5 6753. 6351. 455. o
5424 2 -2 10 5 6756. 6805. 453. o
5424 1 2 10 -5 6756. 6805. 453. o
5425 2 0 10 -5 165. 454. 454. <
5425 1 0 10 5 165. 454. 454. <
5426 2 0 10 5 165. 907. 453. <
5426 1 0 10 -5 165. 907. 453. <
5427 2 -2 10 -5 6756. 6805. 453. o
5427 1 2 10 5 6756. 6805. 453. o
5428 2 2 10 5 6753. 6805. 453. o
5428 1 -2 10 -5 6753. 6805. 453. o
5429 2 -4 10 -5 514. 907. 453. <
5429 1 4 10 5 514. 907. 453. <
5430 2 4 10 5 516. 907. 907. <
5430 1 -4 10 -5 516. 907. 907. <
5431 2 -6 10 -5 1528. 907. 454. <
5431 1 6 10 5 1528. 907. 454. <
5432 2 6 10 5 1527. 907. 908. <
5432 1 -6 10 -5 1527. 907. 908. <
5433 2 -8 10 -5 453. 0. 907. <
5433 1 8 10 5 453. 0. 907. <
5434 3 -5 -11 9 1555. 2268. 1814. <
5434 2 9 11 -5 1555. 2268. 1814. <
5434 1 -9 11 5 1555. 2268. 1814. <
5435 3 5 -11 -9 1749. 1361. 454. o
5435 2 -9 11 5 1749. 1361. 454. o
5435 1 9 11 -5 1749. 1361. 454. o
5436 3 5 -11 -7 64639. 107970. 1727. o
5436 2 -7 11 5 64639. 107970. 1727. o
5436 1 7 11 -5 64639. 107970. 1727. o
5437 3 5 -11 -5 26936. 40829. 745. o
5437 2 -5 11 5 26936. 40829. 745. o
5437 1 5 11 -5 26936. 40829. 745. o
5438 3 -5 -11 3 323278. 312115. 2651. o
5438 2 3 11 -5 323278. 312115. 2651. o
5438 1 -3 11 5 323278. 312115. 2651. o
5439 3 5 -11 -3 321358. 314383. 2515. o
5439 2 -3 11 5 321358. 314383. 2515. o
5439 1 3 11 -5 321358. 314383. 2515. o
5440 3 -5 -11 1 214670. 196433. 2294. o
5440 2 1 11 -5 214670. 196433. 2294. o
5440 1 -1 11 5 214670. 196433. 2294. o
5441 3 5 -11 -1 215863. 213218. 1468. o
5441 2 -1 11 5 215863. 213218. 1468. o
5441 1 1 11 -5 215863. 213218. 1468. o
5442 3 -5 -11 -1 215870. 195979. 2333. o
5442 2 -1 11 -5 215870. 195979. 2333. o
5442 1 1 11 5 215870. 195979. 2333. o
5443 3 5 -11 1 214663. 207321. 1635. o
5443 2 1 11 5 214663. 207321. 1635. o
5443 1 -1 11 -5 214663. 207321. 1635. o
5444 3 -5 -11 -3 321998. 303042. 2876. o
5444 2 -3 11 -5 321998. 303042. 2876. o
5444 1 3 11 5 321998. 303042. 2876. o
5445 3 -5 -11 -5 26605. 33570. 1318. o
5445 2 -5 11 -5 26605. 33570. 1318. o
5445 1 5 11 5 26605. 33570. 1318. o
5446 3 -5 -11 -7 64977. 58975. 1868. o
5446 2 -7 11 -5 64977. 58975. 1868. o
5446 1 7 11 5 64977. 58975. 1868. o
5447 3 -5 -11 -9 1619. 2722. 1360. <
5447 2 -9 11 -5 1619. 2722. 1360. <
5447 1 9 11 5 1619. 2722. 1360. <
5448 2 8 12 -5 104. 907. 907. <
5448 1 -8 12 5 104. 907. 907. <
5449 2 -8 12 5 104. 907. 453. <
5449 1 8 12 -5 104. 907. 453. <
5450 2 6 12 -5 343. 0. 454. <
5450 1 -6 12 5 343. 0. 454. <
5451 2 -6 12 5 343. 907. 453. <
5451 1 6 12 -5 343. 907. 453. <
5452 2 4 12 -5 1090. 454. 907. <
5452 1 -4 12 5 1090. 454. 907. <
5453 2 -4 12 5 1089. 1361. 453. o
5453 1 4 12 -5 1089. 1361. 453. o
5454 2 2 12 -5 4550. 5444. 451. o
5454 1 -2 12 5 4550. 5444. 451. o
5455 2 -2 12 5 4552. 6351. 448. o
5455 1 2 12 -5 4552. 6351. 448. o
5456 2 0 12 -5 684. 2268. 907. o
5456 1 0 12 5 684. 2268. 907. o
5457 2 0 12 5 684. -454. 454. <
5457 1 0 12 -5 684. -454. 454. <
5458 2 -2 12 -5 4552. 5444. 451. o
5458 1 2 12 5 4552. 5444. 451. o
5459 2 -4 12 -5 1089. 907. 454. <
5459 1 4 12 5 1089. 907. 454. <
5460 2 4 12 5 1090. 0. 907. <
5460 1 -4 12 -5 1090. 0. 907. <
5461 2 -6 12 -5 343. 454. 454. <
5461 1 6 12 5 343. 454. 454. <
5462 2 6 12 5 343. 907. 907. <
5462 1 -6 12 -5 343. 907. 907. <
5463 2 -8 12 -5 104. 907. 907. <
5463 1 8 12 5 104. 907. 907. <
5464 3 -5 -13 9 1970. 2268. 1815. <
5464 2 9 13 -5 1970. 2268. 1815. <
5464 1 -9 13 5 1970. 2268. 1815. <
5465 3 5 -13 -9 2272. 2268. 907. o
5465 2 -9 13 5 2272. 2268. 907. o
5465 1 9 13 -5 2272. 2268. 907. o
5466 3 5 -13 -7 84520. 83473. 1827. o
5466 2 -7 13 5 84520. 83473. 1827. o
5466 1 7 13 -5 84520. 83473. 1827. o
5467 3 5 -13 -5 34144. 40829. 1309. o
5467 2 -5 13 5 34144. 40829. 1309. o
5467 1 5 13 -5 34144. 40829. 1309. o
5468 3 -5 -13 3 456240. 456831. 1774. o
5468 2 3 13 -5 456240. 456831. 1774. o
5468 1 -3 13 5 456240. 456831. 1774. o
5469 3 5 -13 -3 453227. 450934. 2822. o
5469 2 -3 13 5 453227. 450934. 2822. o
5469 1 3 13 -5 453227. 450934. 2822. o
5470 3 -5 -13 1 315624. 265842. 3285. o
5470 2 1 13 -5 315624. 265842. 3285. o
5470 1 -1 13 5 315624. 265842. 3285. o
5471 3 5 -13 -1 317535. 316198. 1442. o
5471 2 -1 13 5 317535. 316198. 1442. o
5471 1 1 13 -5 317535. 316198. 1442. o
5472 3 -5 -13 -1 317831. 307579. 2616. o
5472 2 -1 13 -5 317831. 307579. 2616. o
5472 1 1 13 5 317831. 307579. 2616. o
5473 3 5 -13 1 315327. 317105. 1730. o
5473 2 1 13 5 315327. 317105. 1730. o
5473 1 -1 13 -5 315327. 317105. 1730. o
5474 3 -5 -13 -3 454313. 437778. 3364. o
5474 2 -3 13 -5 454313. 437778. 3364. o
5474 1 3 13 5 454313. 437778. 3364. o
5475 3 -5 -13 -5 33578. 34932. 1352. o
5475 2 -5 13 -5 33578. 34932. 1352. o
5475 1 5 13 5 33578. 34932. 1352. o
5476 3 -5 -13 -7 85008. 109331. 1958. o
5476 2 -7 13 -5 85008. 109331. 1958. o
5476 1 7 13 5 85008. 109331. 1958. o
5477 3 -5 -13 -9 2050. 1815. 1815. <
5477 2 -9 13 -5 2050. 1815. 1815. <
5477 1 9 13 5 2050. 1815. 1815. <
5478 2 8 14 -5 167. 1815. 907. <
5478 1 -8 14 5 167. 1815. 907. <
5479 2 -8 14 5 166. 907. 907. <
5479 1 8 14 -5 166. 907. 907. <
5480 2 6 14 -5 343. 454. 454. <
5480 1 -6 14 5 343. 454. 454. <
5481 2 -6 14 5 345. 907. 453. <
5481 1 6 14 -5 345. 907. 453. <
5482 2 -4 14 5 1108. 907. 454. <
5482 1 4 14 -5 1108. 907. 454. <
5483 2 -2 14 5 2364. 3176. 907. o
5483 1 2 14 -5 2364. 3176. 907. o
5484 2 0 14 -5 21. 0. 907. <
5484 1 0 14 5 21. 0. 907. <
5485 2 0 14 5 21. 907. 453. <
5485 1 0 14 -5 21. 907. 453. <
5486 2 -2 14 -5 2364. 2722. 453. o
5486 1 2 14 5 2364. 2722. 453. o
5487 2 -4 14 -5 1108. 1361. 453. o
5487 1 4 14 5 1108. 1361. 453. o
5488 2 4 14 5 1113. 0. 907. <
5488 1 -4 14 -5 1113. 0. 907. <
5489 2 -6 14 -5 345. 0. 454. <
5489 1 6 14 5 345. 0. 454. <
5490 2 6 14 5 343. 1361. 907. <
5490 1 -6 14 -5 343. 1361. 907. <
5491 2 -8 14 -5 166. 907. 907. <
5491 1 8 14 5 166. 907. 907. <
5492 3 -5 -15 9 118. 1815. 1814. <
5492 2 9 15 -5 118. 1815. 1814. <
5492 1 -9 15 5 118. 1815. 1814. <
5493 3 5 -15 -9 139. 454. 907. <
5493 2 -9 15 5 139. 454. 907. <
5493 1 9 15 -5 139. 454. 907. <
5494 3 -5 -15 7 6396. 3176. 1364. o
5494 2 7 15 -5 6396. 3176. 1364. o
5494 1 -7 15 5 6396. 3176. 1364. o
5495 3 5 -15 -7 6361. 7258. 450. o
5495 2 -7 15 5 6361. 7258. 450. o
5495 1 7 15 -5 6361. 7258. 450. o
5496 3 5 -15 -5 3760. 6805. 902. o
5496 2 -5 15 5 3760. 6805. 902. o
5496 1 5 15 -5 3760. 6805. 902. o
5497 3 -5 -15 3 17443. 12702. 1374. o
5497 2 3 15 -5 17443. 12702. 1374. o
5497 1 -3 15 5 17443. 12702. 1374. o
5498 3 5 -15 -3 17349. 17239. 908. o
5498 2 -3 15 5 17349. 17239. 908. o
5498 1 3 15 -5 17349. 17239. 908. o
5499 3 -5 -15 1 25770. 25405. 910. o
5499 2 1 15 -5 25770. 25405. 910. o
5499 1 -1 15 5 25770. 25405. 910. o
5500 3 5 -15 -1 25951. 27673. 893. o
5500 2 -1 15 5 25951. 27673. 893. o
5500 1 1 15 -5 25951. 27673. 893. o
5501 3 -5 -15 -1 25969. 28127. 890. o
5501 2 -1 15 -5 25969. 28127. 890. o
5501 1 1 15 5 25969. 28127. 890. o
5502 3 5 -15 1 25753. 26312. 445. o
5502 2 1 15 5 25753. 26312. 445. o
5502 1 -1 15 -5 25753. 26312. 445. o
5503 3 -5 -15 -3 17369. 39468. 1214. o
5503 2 -3 15 -5 17369. 39468. 1214. o
5503 1 3 15 5 17369. 39468. 1214. o
5504 3 5 -15 3 17423. 24044. 1332. o
5504 2 3 15 5 17423. 24044. 1332. o
5504 1 -3 15 -5 17423. 24044. 1332. o
5505 3 -5 -15 -5 3734. 7258. 1357. o
5505 2 -5 15 -5 3734. 7258. 1357. o
5505 1 5 15 5 3734. 7258. 1357. o
5506 3 5 -15 5 3731. 1815. 909. <
5506 2 5 15 5 3731. 1815. 909. <
5506 1 -5 15 -5 3731. 1815. 909. <
5507 3 -5 -15 -7 6384. 10888. 1353. o
5507 2 -7 15 -5 6384. 10888. 1353. o
5507 1 7 15 5 6384. 10888. 1353. o
5508 3 5 -15 7 6373. 454. 1817. <
5508 2 7 15 5 6373. 454. 1817. <
5508 1 -7 15 -5 6373. 454. 1817. <
5509 3 -5 -15 -9 125. 1815. 1814. <
5509 2 -9 15 -5 125. 1815. 1814. <
5509 1 9 15 5 125. 1815. 1814. <
5510 2 8 16 -5 97. 907. 1361. <
5510 1 -8 16 5 97. 907. 1361. <
5511 2 -8 16 5 98. 0. 907. <
5511 1 8 16 -5 98. 0. 907. <
5512 2 6 16 -5 959. 454. 454. <
5512 1 -6 16 5 959. 454. 454. <
5513 2 -6 16 5 956. 907. 454. <
5513 1 6 16 -5 956. 907. 454. <
5514 2 -4 16 5 1162. 1815. 907. <
5514 1 4 16 -5 1162. 1815. 907. <
5515 2 -2 16 5 803. 1815. 907. <
5515 1 2 16 -5 803. 1815. 907. <
5516 2 0 16 -5 6314. 6351. 454. o
5516 1 0 16 5 6314. 6351. 454. o
5517 2 0 16 5 6314. 7258. 905. o
5517 1 0 16 -5 6314. 7258. 905. o
5518 2 -2 16 -5 803. 907. 907. <
5518 1 2 16 5 803. 907. 907. <
5519 2 2 16 5 794. 1361. 453. o
5519 1 -2 16 -5 794. 1361. 453. o
5520 2 -4 16 -5 1162. 4537. 904. o
5520 1 4 16 5 1162. 4537. 904. o
5521 2 -6 16 -5 956. 907. 454. <
5521 1 6 16 5 956. 907. 454. <
5522 2 6 16 5 959. 1361. 907. <
5522 1 -6 16 -5 959. 1361. 907. <
5523 2 -8 16 -5 98. -454. 907. <
5523 1 8 16 5 98. -454. 907. <
5524 3 -5 -17 9 96. -907. 1815. <
5524 2 9 17 -5 96. -907. 1815. <
5524 1 -9 17 5 96. -907. 1815. <
5525 3 5 -17 -9 105. 454. 454. <
5525 2 -9 17 5 105. 454. 454. <
5525 1 9 17 -5 105. 454. 454. <
5526 3 -5 -17 7 1153. 907. 907. <
5526 2 7 17 -5 1153. 907. 907. <
5526 1 -7 17 5 1153. 907. 907. <
5527 3 5 -17 -7 1138. 1361. 453. o
5527 2 -7 17 5 1138. 1361. 453. o
5527 1 7 17 -5 1138. 1361. 453. o
5528 3 -5 -17 5 945. 1361. 1361. <
5528 2 5 17 -5 945. 1361. 1361. <
5528 1 -5 17 5 945. 1361. 1361. <
5529 3 5 -17 -5 978. 1361. 907. <
5529 2 -5 17 5 978. 1361. 907. <
5529 1 5 17 -5 978. 1361. 907. <
5530 3 5 -17 -3 201. 454. 907. <
5530 2 -3 17 5 201. 454. 907. <
5530 1 3 17 -5 201. 454. 907. <
5531 3 -5 -17 1 3920. 3629. 454. o
5531 2 1 17 -5 3920. 3629. 454. o
5531 1 -1 17 5 3920. 3629. 454. o
5532 3 5 -17 -1 3938. 2722. 908. o
5532 2 -1 17 5 3938. 2722. 908. o
5532 1 1 17 -5 3938. 2722. 908. o
5533 3 -5 -17 -1 3925. 4083. 907. o
5533 2 -1 17 -5 3925. 4083. 907. o
5533 1 1 17 5 3925. 4083. 907. o
5534 3 5 -17 1 3934. 4083. 907. o
5534 2 1 17 5 3934. 4083. 907. o
5534 1 -1 17 -5 3934. 4083. 907. o
5535 3 -5 -17 -3 210. 1815. 907. <
5535 2 -3 17 -5 210. 1815. 907. <
5535 1 3 17 5 210. 1815. 907. <
5536 3 5 -17 3 194. -454. 907. <
5536 2 3 17 5 194. -454. 907. <
5536 1 -3 17 -5 194. -454. 907. <
5537 3 -5 -17 -5 963. 907. 454. <
5537 2 -5 17 -5 963. 907. 454. <
5537 1 5 17 5 963. 907. 454. <
5538 3 5 -17 5 961. 907. 907. <
5538 2 5 17 5 961. 907. 907. <
5538 1 -5 17 -5 961. 907. 907. <
5539 3 -5 -17 -7 1143. 2722. 906. o
5539 2 -7 17 -5 1143. 2722. 906. o
5539 1 7 17 5 1143. 2722. 906. o
5540 3 5 -17 7 1148. 1361. 1815. <
5540 2 7 17 5 1148. 1361. 1815. <
5540 1 -7 17 -5 1148. 1361. 1815. <
5541 3 -5 -17 -9 102. 907. 1815. <
5541 2 -9 17 -5 102. 907. 1815. <
5541 1 9 17 5 102. 907. 1815. <
5542 2 8 18 -5 1968. 1815. 907. <
5542 1 -8 18 5 1968. 1815. 907. <
5543 2 -8 18 5 1966. 1815. 454. o
5543 1 8 18 -5 1966. 1815. 454. o
5544 2 6 18 -5 3601. 3176. 908. o
5544 1 -6 18 5 3601. 3176. 908. o
5545 2 -6 18 5 3606. 4083. 453. o
5545 1 6 18 -5 3606. 4083. 453. o
5546 2 -4 18 5 77599. 81204. 1303. o
5546 1 4 18 -5 77599. 81204. 1303. o
5547 2 2 18 -5 2209. 907. 455. <
5547 1 -2 18 5 2209. 907. 455. <
5548 2 -2 18 5 2212. 1815. 454. o
5548 1 2 18 -5 2212. 1815. 454. o
5549 2 0 18 -5 376832. 360656. 2882. o
5549 1 0 18 5 376832. 360656. 2882. o
5550 2 0 18 5 376832. 371090. 2507. o
5550 1 0 18 -5 376832. 371090. 2507. o
5551 2 -2 18 -5 2212. 0. 908. <
5551 1 2 18 5 2212. 0. 908. <
5552 2 2 18 5 2209. 907. 455. <
5552 1 -2 18 -5 2209. 907. 455. <
5553 2 -4 18 -5 77599. 82112. 1288. o
5553 1 4 18 5 77599. 82112. 1288. o
5554 2 -6 18 -5 3606. 6351. 445. o
5554 1 6 18 5 3606. 6351. 445. o
5555 2 6 18 5 3601. 2268. 1362. <
5555 1 -6 18 -5 3601. 2268. 1362. <
5556 2 -8 18 -5 1966. 907. 908. <
5556 1 8 18 5 1966. 907. 908. <
5557 3 -5 -19 9 40. 907. 1815. <
5557 2 9 19 -5 40. 907. 1815. <
5557 1 -9 19 5 40. 907. 1815. <
5558 3 5 -19 -9 48. 454. 454. <
5558 2 -9 19 5 48. 454. 454. <
5558 1 9 19 -5 48. 454. 454. <
5559 3 -5 -19 7 2015. 907. 908. <
5559 2 7 19 -5 2015. 907. 908. <
5559 1 -7 19 5 2015. 907. 908. <
5560 3 5 -19 -7 1992. 1815. 454. o
5560 2 -7 19 5 1992. 1815. 454. o
5560 1 7 19 -5 1992. 1815. 454. o
5561 3 -5 -19 5 518. 907. 453. <
5561 2 5 19 -5 518. 907. 453. <
5561 1 -5 19 5 518. 907. 453. <
5562 3 5 -19 -5 545. 2268. 906. o
5562 2 -5 19 5 545. 2268. 906. o
5562 1 5 19 -5 545. 2268. 906. o
5563 3 5 -19 -3 4128. 1815. 909. <
5563 2 -3 19 5 4128. 1815. 909. <
5563 1 3 19 -5 4128. 1815. 909. <
5564 3 -5 -19 1 1919. 2268. 907. o
5564 2 1 19 -5 1919. 2268. 907. o
5564 1 -1 19 5 1919. 2268. 907. o
5565 3 5 -19 -1 1975. 1361. 454. o
5565 2 -1 19 5 1975. 1361. 454. o
5565 1 1 19 -5 1975. 1361. 454. o
5566 3 -5 -19 -1 1958. 2722. 907. o
5566 2 -1 19 -5 1958. 2722. 907. o
5566 1 1 19 5 1958. 2722. 907. o
5567 3 5 -19 1 1937. 1815. 907. <
5567 2 1 19 5 1937. 1815. 907. <
5567 1 -1 19 -5 1937. 1815. 907. <
5568 3 -5 -19 -3 4147. 2722. 909. o
5568 2 -3 19 -5 4147. 2722. 909. o
5568 1 3 19 5 4147. 2722. 909. o
5569 3 5 -19 3 4182. 3176. 908. o
5569 2 3 19 5 4182. 3176. 908. o
5569 1 -3 19 -5 4182. 3176. 908. o
5570 3 -5 -19 -5 532. 1361. 453. o
5570 2 -5 19 -5 532. 1361. 453. o
5570 1 5 19 5 532. 1361. 453. o
5571 3 5 -19 5 531. 1361. 907. <
5571 2 5 19 5 531. 1361. 907. <
5571 1 -5 19 -5 531. 1361. 907. <
5572 3 -5 -19 -7 2005. 907. 454. <
5572 2 -7 19 -5 2005. 907. 454. <
5572 1 7 19 5 2005. 907. 454. <
5573 3 5 -19 7 2001. 0. 1361. <
5573 2 7 19 5 2001. 0. 1361. <
5573 1 -7 19 -5 2001. 0. 1361. <
5574 3 -5 -19 -9 44. 907. 1815. <
5574 2 -9 19 -5 44. 907. 1815. <
5574 1 9 19 5 44. 907. 1815. <
5575 2 8 20 -5 1273. 454. 1361. <
5575 1 -8 20 5 1273. 454. 1361. <
5576 2 -8 20 5 1280. 0. 454. <
5576 1 8 20 -5 1280. 0. 454. <
5577 2 6 20 -5 1239. 0. 907. <
5577 1 -6 20 5 1239. 0. 907. <
5578 2 -6 20 5 1225. 907. 454. <
5578 1 6 20 -5 1225. 907. 454. <
5579 2 -4 20 5 11969. 9527. 915. o
5579 1 4 20 -5 11969. 9527. 915. o
5580 2 2 20 -5 752. -454. 454. <
5580 1 -2 20 5 752. -454. 454. <
5581 2 -2 20 5 742. 454. 454. <
5581 1 2 20 -5 742. 454. 454. <
5582 2 0 20 -5 33691. 33117. 913. o
5582 1 0 20 5 33691. 33117. 913. o
5583 2 0 20 5 33691. 31756. 926. o
5583 1 0 20 -5 33691. 31756. 926. o
5584 2 -2 20 -5 742. 907. 454. <
5584 1 2 20 5 742. 907. 454. <
5585 2 2 20 5 752. 907. 454. <
5585 1 -2 20 -5 752. 907. 454. <
5586 2 -4 20 -5 11969. 10434. 912. o
5586 1 4 20 5 11969. 10434. 912. o
5587 2 -6 20 -5 1225. 1815. 453. o
5587 1 6 20 5 1225. 1815. 453. o
5588 2 6 20 5 1239. 2268. 1361. <
5588 1 -6 20 -5 1239. 2268. 1361. <
5589 2 -8 20 -5 1280. 907. 907. <
5589 1 8 20 5 1280. 907. 907. <
5590 3 -5 -21 9 150. 3629. 1813. <
5590 2 9 21 -5 150. 3629. 1813. <
5590 1 -9 21 5 150. 3629. 1813. <
5591 3 5 -21 -9 166. 454. 454. <
5591 2 -9 21 5 166. 454. 454. <
5591 1 9 21 -5 166. 454. 454. <
5592 3 -5 -21 7 4528. 907. 910. <
5592 2 7 21 -5 4528. 907. 910. <
5592 1 -7 21 5 4528. 907. 910. <
5593 3 5 -21 -7 4495. 9980. 1352. o
5593 2 -7 21 5 4495. 9980. 1352. o
5593 1 7 21 -5 4495. 9980. 1352. o
5594 3 -5 -21 5 4688. 4083. 908. o
5594 2 5 21 -5 4688. 4083. 908. o
5594 1 -5 21 5 4688. 4083. 908. o
5595 3 5 -21 -5 4779. 4083. 455. o
5595 2 -5 21 5 4779. 4083. 455. o
5595 1 5 21 -5 4779. 4083. 455. o
5596 3 -5 -21 3 27491. 21322. 1389. o
5596 2 3 21 -5 27491. 21322. 1389. o
5596 1 -3 21 5 27491. 21322. 1389. o
5597 3 5 -21 -3 27311. 26766. 912. o
5597 2 -3 21 5 27311. 26766. 912. o
5597 1 3 21 -5 27311. 26766. 912. o
5598 3 -5 -21 1 29892. 28127. 922. o
5598 2 1 21 -5 29892. 28127. 922. o
5598 1 -1 21 5 29892. 28127. 922. o
5599 3 5 -21 -1 30195. 26766. 507. o
5599 2 -1 21 5 30195. 26766. 507. o
5599 1 1 21 -5 30195. 26766. 507. o
5600 3 -5 -21 -1 30147. 28127. 924. o
5600 2 -1 21 -5 30147. 28127. 924. o
5600 1 1 21 5 30147. 28127. 924. o
5601 3 5 -21 1 29939. 28127. 483. o
5601 2 1 21 5 29939. 28127. 483. o
5601 1 -1 21 -5 29939. 28127. 483. o
5602 3 -5 -21 -3 27339. 20414. 952. o
5602 2 -3 21 -5 27339. 20414. 952. o
5602 1 3 21 5 27339. 20414. 952. o
5603 3 5 -21 3 27463. 21776. 946. o
5603 2 3 21 5 27463. 21776. 946. o
5603 1 -3 21 -5 27463. 21776. 946. o
5604 3 -5 -21 -5 4736. 4990. 907. o
5604 2 -5 21 -5 4736. 4990. 907. o
5604 1 5 21 5 4736. 4990. 907. o
5605 3 5 -21 5 4731. 4083. 1362. o
5605 2 5 21 5 4731. 4083. 1362. o
5605 1 -5 21 -5 4731. 4083. 1362. o
5606 3 -5 -21 -7 4528. 2268. 909. o
5606 2 -7 21 -5 4528. 2268. 909. o
5606 1 7 21 5 4528. 2268. 909. o
5607 3 5 -21 7 4496. 1815. 1816. <
5607 2 7 21 5 4496. 1815. 1816. <
5607 1 -7 21 -5 4496. 1815. 1816. <
5608 3 -5 -21 -9 148. 2268. 2268. <
5608 2 -9 21 -5 148. 2268. 2268. <
5608 1 9 21 5 148. 2268. 2268. <
5609 2 8 22 -5 798. -454. 907. <
5609 1 -8 22 5 798. -454. 907. <
5610 2 -8 22 5 798. 907. 454. <
5610 1 8 22 -5 798. 907. 454. <
5611 2 6 22 -5 1180. 0. 454. <
5611 1 -6 22 5 1180. 0. 454. <
5612 2 -6 22 5 1180. 454. 454. <
5612 1 6 22 -5 1180. 454. 454. <
5613 2 -4 22 5 6153. 5898. 908. o
5613 1 4 22 -5 6153. 5898. 908. o
5614 2 2 22 -5 1808. 1815. 454. o
5614 1 -2 22 5 1808. 1815. 454. o
5615 2 -2 22 5 1806. 1815. 454. o
5615 1 2 22 -5 1806. 1815. 454. o
5616 2 0 22 -5 21988. 21776. 909. o
5616 1 0 22 5 21988. 21776. 909. o
5617 2 0 22 5 21988. 22229. 906. o
5617 1 0 22 -5 21988. 22229. 906. o
5618 2 -2 22 -5 1806. 907. 908. <
5618 1 2 22 5 1806. 907. 908. <
5619 2 2 22 5 1808. 907. 454. <
5619 1 -2 22 -5 1808. 907. 454. <
5620 2 -4 22 -5 6153. 5444. 908. o
5620 1 4 22 5 6153. 5444. 908. o
5621 2 -6 22 -5 1180. 907. 454. <
5621 1 6 22 5 1180. 907. 454. <
5622 2 6 22 5 1180. 907. 907. <
5622 1 -6 22 -5 1180. 907. 907. <
5623 2 -8 22 -5 798. 907. 907. <
5623 1 8 22 5 798. 907. 907. <
5624 3 -5 -23 9 1382. 907. 1815. <
5624 2 9 23 -5 1382. 907. 1815. <
5624 1 -9 23 5 1382. 907. 1815. <
5625 3 5 -23 -9 1477. 2722. 452. o
5625 2 -9 23 5 1477. 2722. 452. o
5625 1 9 23 -5 1477. 2722. 452. o
5626 3 -5 -23 7 33596. 21322. 1860. o
5626 2 7 23 -5 33596. 21322. 1860. o
5626 1 -7 23 5 33596. 21322. 1860. o
5627 3 5 -23 -7 33449. 35385. 1348. o
5627 2 -7 23 5 33449. 35385. 1348. o
5627 1 7 23 -5 33449. 35385. 1348. o
5628 3 5 -23 -5 30464. 36292. 1321. o
5628 2 -5 23 5 30464. 36292. 1321. o
5628 1 5 23 -5 30464. 36292. 1321. o
5629 3 -5 -23 3 208149. 211404. 2186. o
5629 2 3 23 -5 208149. 211404. 2186. o
5629 1 -3 23 5 208149. 211404. 2186. o
5630 3 5 -23 -3 207893. 229550. 851. o
5630 2 -3 23 5 207893. 229550. 851. o
5630 1 3 23 -5 207893. 229550. 851. o
5631 3 -5 -23 1 218701. 212765. 1591. o
5631 2 1 23 -5 218701. 212765. 1591. o
5631 1 -1 23 5 218701. 212765. 1591. o
5632 3 5 -23 -1 219434. 214126. 1976. o
5632 2 -1 23 5 219434. 214126. 1976. o
5632 1 1 23 -5 219434. 214126. 1976. o
5633 3 -5 -23 -1 219358. 205052. 2212. o
5633 2 -1 23 -5 219358. 205052. 2212. o
5633 1 1 23 5 219358. 205052. 2212. o
5634 3 5 -23 1 218777. 212311. 2008. o
5634 2 1 23 5 218777. 212311. 2008. o
5634 1 -1 23 -5 218777. 212311. 2008. o
5635 3 -5 -23 -3 207998. 255408. 1162. o
5635 2 -3 23 -5 207998. 255408. 1162. o
5635 1 3 23 5 207998. 255408. 1162. o
5636 3 5 -23 3 208045. 221384. 1323. o
5636 2 3 23 5 208045. 221384. 1323. o
5636 1 -3 23 -5 208045. 221384. 1323. o
5637 3 -5 -23 -5 30197. 41283. 1277. o
5637 2 -5 23 -5 30197. 41283. 1277. o
5637 1 5 23 5 30197. 41283. 1277. o
5638 3 -5 -23 -7 33525. 35385. 1348. o
5638 2 -7 23 -5 33525. 35385. 1348. o
5638 1 7 23 5 33525. 35385. 1348. o
5639 3 5 -23 7 33520. 26312. 2742. o
5639 2 7 23 5 33520. 26312. 2742. o
5639 1 -7 23 -5 33520. 26312. 2742. o
5640 3 -5 -23 -9 1416. 2268. 2268. <
5640 2 -9 23 -5 1416. 2268. 2268. <
5640 1 9 23 5 1416. 2268. 2268. <
5641 2 8 24 -5 204. 1815. 1361. <
5641 1 -8 24 5 204. 1815. 1361. <
5642 2 -8 24 5 203. 907. 453. <
5642 1 8 24 -5 203. 907. 453. <
5643 2 6 24 -5 522. 907. 907. <
5643 1 -6 24 5 522. 907. 907. <
5644 2 -6 24 5 523. 907. 453. <
5644 1 6 24 -5 523. 907. 453. <
5645 2 -4 24 5 2622. 2722. 453. o
5645 1 4 24 -5 2622. 2722. 453. o
5646 2 2 24 -5 791. 454. 454. <
5646 1 -2 24 5 791. 454. 454. <
5647 2 -2 24 5 793. 907. 907. <
5647 1 2 24 -5 793. 907. 907. <
5648 2 0 24 -5 15748. 14971. 911. o
5648 1 0 24 5 15748. 14971. 911. o
5649 2 0 24 5 15748. 14063. 915. o
5649 1 0 24 -5 15748. 14063. 915. o
5650 2 -2 24 -5 793. 1361. 907. <
5650 1 2 24 5 793. 1361. 907. <
5651 2 2 24 5 791. 907. 454. <
5651 1 -2 24 -5 791. 907. 454. <
5652 2 -4 24 -5 2622. 2722. 907. o
5652 1 4 24 5 2622. 2722. 907. o
5653 2 4 24 5 2625. 2722. 907. o
5653 1 -4 24 -5 2625. 2722. 907. o
5654 2 -6 24 -5 523. 907. 453. <
5654 1 6 24 5 523. 907. 453. <
5655 2 6 24 5 522. -454. 1361. <
5655 1 -6 24 -5 522. -454. 1361. <
5656 2 -8 24 -5 203. 1361. 907. <
5656 1 8 24 5 203. 1361. 907. <
5657 3 -5 -25 7 56973. 29941. 2389. o
5657 2 7 25 -5 56973. 29941. 2389. o
5657 1 -7 25 5 56973. 29941. 2389. o
5658 3 5 -25 -7 56521. 60790. 1310. o
5658 2 -7 25 5 56521. 60790. 1310. o
5658 1 7 25 -5 56521. 60790. 1310. o
5659 3 5 -25 -5 48936. 51263. 1338. o
5659 2 -5 25 5 48936. 51263. 1338. o
5659 1 5 25 -5 48936. 51263. 1338. o
5660 3 5 -25 -3 366692. 423261. 8177. o
5660 2 -3 25 5 366692. 423261. 8177. o
5660 1 3 25 -5 366692. 423261. 8177. o
5661 3 -5 -25 1 338819. 320735. 2880. o
5661 2 1 25 -5 338819. 320735. 2880. o
5661 1 -1 25 5 338819. 320735. 2880. o
5662 3 5 -25 -1 341265. 339335. 2344. o
5662 2 -1 25 5 341265. 339335. 2344. o
5662 1 1 25 -5 341265. 339335. 2344. o
5663 3 -5 -25 -1 340531. 320281. 2612. o
5663 2 -1 25 -5 340531. 320281. 2612. o
5663 1 1 25 5 340531. 320281. 2612. o
5664 3 5 -25 1 339552. 318920. 2955. o
5664 2 1 25 5 339552. 318920. 2955. o
5664 1 -1 25 -5 339552. 318920. 2955. o
5665 3 -5 -25 -3 366844. 395134. 1261. o
5665 2 -3 25 -5 366844. 395134. 1261. o
5665 1 3 25 5 366844. 395134. 1261. o
5666 3 5 -25 3 367544. 288979. 4540. o
5666 2 3 25 5 367544. 288979. 4540. o
5666 1 -3 25 -5 367544. 288979. 4540. o
5667 3 -5 -25 -5 48369. 57161. 1264. o
5667 2 -5 25 -5 48369. 57161. 1264. o
5667 1 5 25 5 48369. 57161. 1264. o
5668 3 -5 -25 -7 56815. 45819. 1464. o
5668 2 -7 25 -5 56815. 45819. 1464. o
5668 1 7 25 5 56815. 45819. 1464. o
5669 3 5 -25 7 56680. 43551. 3228. o
5669 2 7 25 5 56680. 43551. 3228. o
5669 1 -7 25 -5 56680. 43551. 3228. o
5670 2 8 26 -5 70. 907. 1361. <
5670 1 -8 26 5 70. 907. 1361. <
5671 2 -8 26 5 69. 907. 453. <
5671 1 8 26 -5 69. 907. 453. <
5672 2 6 26 -5 132. 1361. 907. <
5672 1 -6 26 5 132. 1361. 907. <
5673 2 -6 26 5 133. 454. 454. <
5673 1 6 26 -5 133. 454. 454. <
5674 2 4 26 -5 715. 454. 907. <
5674 1 -4 26 5 715. 454. 907. <
5675 2 -4 26 5 713. 0. 454. <
5675 1 4 26 -5 713. 0. 454. <
5676 2 2 26 -5 463. 454. 907. <
5676 1 -2 26 5 463. 454. 907. <
5677 2 -2 26 5 465. 0. 907. <
5677 1 2 26 -5 465. 0. 907. <
5678 2 0 26 -5 7793. 5444. 912. o
5678 1 0 26 5 7793. 5444. 912. o
5679 2 0 26 5 7793. 7712. 907. o
5679 1 0 26 -5 7793. 7712. 907. o
5680 2 -2 26 -5 465. 907. 453. <
5680 1 2 26 5 465. 907. 453. <
5681 2 2 26 5 463. 454. 907. <
5681 1 -2 26 -5 463. 454. 907. <
5682 2 -4 26 -5 713. 1361. 453. o
5682 1 4 26 5 713. 1361. 453. o
5683 2 4 26 5 715. 1361. 907. <
5683 1 -4 26 -5 715. 1361. 907. <
5684 2 -6 26 -5 133. 0. 454. <
5684 1 6 26 5 133. 0. 454. <
5685 2 6 26 5 132. 0. 1361. <
5685 1 -6 26 -5 132. 0. 1361. <
5686 2 -8 26 -5 69. 907. 907. <
5686 1 8 26 5 69. 907. 907. <
5687 3 -5 -27 7 3081. -2722. 906. <
5687 2 7 27 -5 3081. -2722. 906. <
5687 1 -7 27 5 3081. -2722. 906. <
5688 3 5 -27 -7 3079. 1361. 456. o
5688 2 -7 27 5 3079. 1361. 456. o
5688 1 7 27 -5 3079. 1361. 456. o
5689 3 5 -27 -5 906. 1815. 453. o
5689 2 -5 27 5 906. 1815. 453. o
5689 1 5 27 -5 906. 1815. 453. o
5690 3 -5 -27 3 1222. -11341. 1343. <
5690 2 3 27 -5 1222. -11341. 1343. <
5690 1 -3 27 5 1222. -11341. 1343. <
5691 3 5 -27 -3 1244. 6805. 899. o
5691 2 -3 27 5 1244. 6805. 899. o
5691 1 3 27 -5 1244. 6805. 899. o
5692 3 -5 -27 1 1442. 0. 908. <
5692 2 1 27 -5 1442. 0. 908. <
5692 1 -1 27 5 1442. 0. 908. <
5693 3 5 -27 -1 1506. 0. 454. <
5693 2 -1 27 5 1506. 0. 454. <
5693 1 1 27 -5 1506. 0. 454. <
5694 3 -5 -27 -1 1479. -907. 453. <
5694 2 -1 27 -5 1479. -907. 453. <
5694 1 1 27 5 1479. -907. 453. <
5695 3 5 -27 1 1470. -454. 907. <
5695 2 1 27 5 1470. -454. 907. <
5695 1 -1 27 -5 1470. -454. 907. <
5696 3 -5 -27 -3 1221. 8166. 895. o
5696 2 -3 27 -5 1221. 8166. 895. o
5696 1 3 27 5 1221. 8166. 895. o
5697 3 5 -27 3 1245. 18600. 1317. o
5697 2 3 27 5 1245. 18600. 1317. o
5697 1 -3 27 -5 1245. 18600. 1317. o
5698 3 -5 -27 -5 900. 454. 454. <
5698 2 -5 27 -5 900. 454. 454. <
5698 1 5 27 5 900. 454. 454. <
5699 3 5 -27 5 899. 454. 1361. <
5699 2 5 27 5 899. 454. 1361. <
5699 1 -5 27 -5 899. 454. 1361. <
5700 3 -5 -27 -7 3079. 3629. 907. o
5700 2 -7 27 -5 3079. 3629. 907. o
5700 1 7 27 5 3079. 3629. 907. o
5701 3 5 -27 7 3080. 2722. 1815. <
5701 2 7 27 5 3080. 2722. 1815. <
5701 1 -7 27 -5 3080. 2722. 1815. <
5702 2 8 28 -5 112. 454. 1361. <
5702 1 -8 28 5 112. 454. 1361. <
5703 2 -8 28 5 113. 454. 454. <
5703 1 8 28 -5 113. 454. 454. <
5704 2 6 28 -5 1347. 907. 907. <
5704 1 -6 28 5 1347. 907. 907. <
5705 2 -6 28 5 1345. 907. 454. <
5705 1 6 28 -5 1345. 907. 454. <
5706 2 4 28 -5 23. 454. 907. <
5706 1 -4 28 5 23. 454. 907. <
5707 2 -4 28 5 25. -454. 454. <
5707 1 4 28 -5 25. -454. 454. <
5708 2 2 28 -5 9442. 6805. 913. o
5708 1 -2 28 5 9442. 6805. 913. o
5709 2 -2 28 5 9428. 9980. 906. o
5709 1 2 28 -5 9428. 9980. 906. o
5710 2 0 28 -5 2738. 1361. 908. <
5710 1 0 28 5 2738. 1361. 908. <
5711 2 0 28 5 2738. 1361. 908. <
5711 1 0 28 -5 2738. 1361. 908. <
5712 2 -2 28 -5 9428. 6805. 465. o
5712 1 2 28 5 9428. 6805. 465. o
5713 2 2 28 5 9442. 5444. 915. o
5713 1 -2 28 -5 9442. 5444. 915. o
5714 2 -4 28 -5 25. 454. 454. <
5714 1 4 28 5 25. 454. 454. <
5715 2 4 28 5 23. 454. 907. <
5715 1 -4 28 -5 23. 454. 907. <
5716 2 -6 28 -5 1345. 0. 454. <
5716 1 6 28 5 1345. 0. 454. <
5717 2 6 28 5 1347. -454. 1361. <
5717 1 -6 28 -5 1347. -454. 1361. <
5718 2 -8 28 -5 113. 907. 907. <
5718 1 8 28 5 113. 907. 907. <
5719 3 -5 -29 7 620. 2722. 906. o
5719 2 7 29 -5 620. 2722. 906. o
5719 1 -7 29 5 620. 2722. 906. o
5720 3 5 -29 -7 608. 454. 454. <
5720 2 -7 29 5 608. 454. 454. <
5720 1 7 29 -5 608. 454. 454. <
5721 3 -5 -29 5 751. 907. 454. <
5721 2 5 29 -5 751. 907. 454. <
5721 1 -5 29 5 751. 907. 454. <
5722 3 5 -29 -5 765. 1361. 453. o
5722 2 -5 29 5 765. 1361. 453. o
5722 1 5 29 -5 765. 1361. 453. o
5723 3 -5 -29 3 1089. 1361. 907. <
5723 2 3 29 -5 1089. 1361. 907. <
5723 1 -3 29 5 1089. 1361. 907. <
5724 3 5 -29 -3 1061. 1361. 453. o
5724 2 -3 29 5 1061. 1361. 453. o
5724 1 3 29 -5 1061. 1361. 453. o
5725 3 -5 -29 1 2133. 0. 908. <
5725 2 1 29 -5 2133. 0. 908. <
5725 1 -1 29 5 2133. 0. 908. <
5726 3 5 -29 -1 2134. 1361. 908. <
5726 2 -1 29 5 2134. 1361. 908. <
5726 1 1 29 -5 2134. 1361. 908. <
5727 3 -5 -29 -1 2135. 1361. 908. <
5727 2 -1 29 -5 2135. 1361. 908. <
5727 1 1 29 5 2135. 1361. 908. <
5728 3 5 -29 1 2132. 1815. 907. <
5728 2 1 29 5 2132. 1815. 907. <
5728 1 -1 29 -5 2132. 1815. 907. <
5729 3 -5 -29 -3 1074. 1361. 453. o
5729 2 -3 29 -5 1074. 1361. 453. o
5729 1 3 29 5 1074. 1361. 453. o
5730 3 5 -29 3 1076. 1361. 907. <
5730 2 3 29 5 1076. 1361. 907. <
5730 1 -3 29 -5 1076. 1361. 907. <
5731 3 -5 -29 -5 759. 0. 454. <
5731 2 -5 29 -5 759. 0. 454. <
5731 1 5 29 5 759. 0. 454. <
5732 3 5 -29 5 758. 907. 907. <
5732 2 5 29 5 758. 907. 907. <
5732 1 -5 29 -5 758. 907. 907. <
5733 3 -5 -29 -7 614. 2268. 906. o
5733 2 -7 29 -5 614. 2268. 906. o
5733 1 7 29 5 614. 2268. 906. o
5734 3 5 -29 7 615. 0. 1815. <
5734 2 7 29 5 615. 0. 1815. <
5734 1 -7 29 -5 615. 0. 1815. <
5735 2 8 30 -5 1262. 1361. 1361. <
5735 1 -8 30 5 1262. 1361. 1361. <
5736 2 -8 30 5 1259. 1815. 453. o
5736 1 8 30 -5 1259. 1815. 453. o
5737 2 -6 30 5 11768. 12702. 904. o
5737 1 6 30 -5 11768. 12702. 904. o
5738 2 4 30 -5 6267. 7258. 905. o
5738 1 -4 30 5 6267. 7258. 905. o
5739 2 -4 30 5 6254. 6805. 452. o
5739 1 4 30 -5 6254. 6805. 452. o
5740 2 2 30 -5 164481. 164223. 1369. o
5740 1 -2 30 5 164481. 164223. 1369. o
5741 2 -2 30 5 164525. 167853. 1731. o
5741 1 2 30 -5 164525. 167853. 1731. o
5742 2 0 30 -5 267. 907. 907. <
5742 1 0 30 5 267. 907. 907. <
5743 2 0 30 5 267. 1361. 907. <
5743 1 0 30 -5 267. 1361. 907. <
5744 2 -2 30 -5 164525. 164223. 1371. o
5744 1 2 30 5 164525. 164223. 1371. o
5745 2 2 30 5 164481. 144716. 2211. o
5745 1 -2 30 -5 164481. 144716. 2211. o
5746 2 -4 30 -5 6254. 8166. 445. o
5746 1 4 30 5 6254. 8166. 445. o
5747 2 4 30 5 6267. 6351. 907. o
5747 1 -4 30 -5 6267. 6351. 907. o
5748 2 -6 30 -5 11768. 10434. 912. o
5748 1 6 30 5 11768. 10434. 912. o
5749 2 -8 30 -5 1259. 2268. 907. o
5749 1 8 30 5 1259. 2268. 907. o
5750 3 -5 -31 7 1067. -454. 907. <
5750 2 7 31 -5 1067. -454. 907. <
5750 1 -7 31 5 1067. -454. 907. <
5751 3 5 -31 -7 1058. -454. 454. <
5751 2 -7 31 5 1058. -454. 454. <
5751 1 7 31 -5 1058. -454. 454. <
5752 3 -5 -31 5 897. 454. 454. <
5752 2 5 31 -5 897. 454. 454. <
5752 1 -5 31 5 897. 454. 454. <
5753 3 5 -31 -5 922. 454. 454. <
5753 2 -5 31 5 922. 454. 454. <
5753 1 5 31 -5 922. 454. 454. <
5754 3 -5 -31 3 4238. 3176. 908. o
5754 2 3 31 -5 4238. 3176. 908. o
5754 1 -3 31 5 4238. 3176. 908. o
5755 3 5 -31 -3 4220. 2722. 456. o
5755 2 -3 31 5 4220. 2722. 456. o
5755 1 3 31 -5 4220. 2722. 456. o
5756 3 -5 -31 1 5794. 4537. 457. o
5756 2 1 31 -5 5794. 4537. 457. o
5756 1 -1 31 5 5794. 4537. 457. o
5757 3 5 -31 -1 5810. 6351. 906. o
5757 2 -1 31 5 5810. 6351. 906. o
5757 1 1 31 -5 5810. 6351. 906. o
5758 3 -5 -31 -1 5809. 5898. 907. o
5758 2 -1 31 -5 5809. 5898. 907. o
5758 1 1 31 5 5809. 5898. 907. o
5759 3 5 -31 1 5795. 2722. 911. o
5759 2 1 31 5 5795. 2722. 911. o
5759 1 -1 31 -5 5795. 2722. 911. o
5760 3 -5 -31 -3 4229. 4537. 453. o
5760 2 -3 31 -5 4229. 4537. 453. o
5760 1 3 31 5 4229. 4537. 453. o
5761 3 -5 -31 -5 910. 1815. 453. o
5761 2 -5 31 -5 910. 1815. 453. o
5761 1 5 31 5 910. 1815. 453. o
5762 3 5 -31 5 909. 1815. 1361. <
5762 2 5 31 5 909. 1815. 1361. <
5762 1 -5 31 -5 909. 1815. 1361. <
5763 3 -5 -31 -7 1062. -454. 907. <
5763 2 -7 31 -5 1062. -454. 907. <
5763 1 7 31 5 1062. -454. 907. <
5764 3 5 -31 7 1062. 1815. 1814. <
5764 2 7 31 5 1062. 1815. 1814. <
5764 1 -7 31 -5 1062. 1815. 1814. <
5765 2 8 32 -5 930. 1361. 1361. <
5765 1 -8 32 5 930. 1361. 1361. <
5766 2 -8 32 5 935. 0. 907. <
5766 1 8 32 -5 935. 0. 907. <
5767 2 -6 32 5 4502. 6805. 445. o
5767 1 6 32 -5 4502. 6805. 445. o
5768 2 4 32 -5 2263. 3629. 906. o
5768 1 -4 32 5 2263. 3629. 906. o
5769 2 -4 32 5 2280. 2722. 453. o
5769 1 4 32 -5 2280. 2722. 453. o
5770 2 2 32 -5 47568. 49902. 1338. o
5770 1 -2 32 5 47568. 49902. 1338. o
5771 2 -2 32 5 47509. 51717. 1319. o
5771 1 2 32 -5 47509. 51717. 1319. o
5772 2 0 32 -5 80. -454. 907. <
5772 1 0 32 5 80. -454. 907. <
5773 2 0 32 5 80. 907. 907. <
5773 1 0 32 -5 80. 907. 907. <
5774 2 -2 32 -5 47509. 45819. 930. o
5774 1 2 32 5 47509. 45819. 930. o
5775 2 -4 32 -5 2280. 2268. 454. o
5775 1 4 32 5 2280. 2268. 454. o
5776 2 4 32 5 2263. 454. 1361. <
5776 1 -4 32 -5 2263. 454. 1361. <
5777 2 -6 32 -5 4502. 4537. 454. o
5777 1 6 32 5 4502. 4537. 454. o
5778 2 -8 32 -5 935. 2268. 1360. <
5778 1 8 32 5 935. 2268. 1360. <
5779 3 -5 -33 7 2326. 1815. 908. <
5779 2 7 33 -5 2326. 1815. 908. <
5779 1 -7 33 5 2326. 1815. 908. <
5780 3 5 -33 -7 2315. 2268. 454. o
5780 2 -7 33 5 2315. 2268. 454. o
5780 1 7 33 -5 2315. 2268. 454. o
5781 3 -5 -33 5 4618. 4537. 454. o
5781 2 5 33 -5 4618. 4537. 454. o
5781 1 -5 33 5 4618. 4537. 454. o
5782 3 5 -33 -5 4644. 4083. 455. o
5782 2 -5 33 5 4644. 4083. 455. o
5782 1 5 33 -5 4644. 4083. 455. o
5783 3 -5 -33 3 15426. 9980. 1373. o
5783 2 3 33 -5 15426. 9980. 1373. o
5783 1 -3 33 5 15426. 9980. 1373. o
5784 3 5 -33 -3 15345. 15878. 905. o
5784 2 -3 33 5 15345. 15878. 905. o
5784 1 3 33 -5 15345. 15878. 905. o
5785 3 -5 -33 1 18156. 18146. 454. o
5785 2 1 33 -5 18156. 18146. 454. o
5785 1 -1 33 5 18156. 18146. 454. o
5786 3 5 -33 -1 18257. 19054. 445. o
5786 2 -1 33 5 18257. 19054. 445. o
5786 1 1 33 -5 18257. 19054. 445. o
5787 3 -5 -33 -1 18247. 17239. 464. o
5787 2 -1 33 -5 18247. 17239. 464. o
5787 1 1 33 5 18247. 17239. 464. o
5788 3 5 -33 1 18166. 15878. 918. o
5788 2 1 33 5 18166. 15878. 918. o
5788 1 -1 33 -5 18166. 15878. 918. o
5789 3 -5 -33 -3 15357. 14517. 911. o
5789 2 -3 33 -5 15357. 14517. 911. o
5789 1 3 33 5 15357. 14517. 911. o
5790 3 -5 -33 -5 4632. 4537. 454. o
5790 2 -5 33 -5 4632. 4537. 454. o
5790 1 5 33 5 4632. 4537. 454. o
5791 3 5 -33 5 4630. 2722. 1362. <
5791 2 5 33 5 4630. 2722. 1362. <
5791 1 -5 33 -5 4630. 2722. 1362. <
5792 3 -5 -33 -7 2328. 1361. 908. <
5792 2 -7 33 -5 2328. 1361. 908. <
5792 1 7 33 5 2328. 1361. 908. <
5793 3 5 -33 7 2313. 1815. 1815. <
5793 2 7 33 5 2313. 1815. 1815. <
5793 1 -7 33 -5 2313. 1815. 1815. <
5794 2 8 34 -5 474. 454. 1361. <
5794 1 -8 34 5 474. 454. 1361. <
5795 2 -8 34 5 475. 454. 454. <
5795 1 8 34 -5 475. 454. 454. <
5796 2 6 34 -5 1610. 907. 908. <
5796 1 -6 34 5 1610. 907. 908. <
5797 2 -6 34 5 1610. 907. 454. <
5797 1 6 34 -5 1610. 907. 454. <
5798 2 4 34 -5 1216. 907. 454. <
5798 1 -4 34 5 1216. 907. 454. <
5799 2 -4 34 5 1216. 907. 454. <
5799 1 4 34 -5 1216. 907. 454. <
5800 2 2 34 -5 13571. 14971. 901. o
5800 1 -2 34 5 13571. 14971. 901. o
5801 2 -2 34 5 13570. 13610. 907. o
5801 1 2 34 -5 13570. 13610. 907. o
5802 2 0 34 -5 757. 454. 907. <
5802 1 0 34 5 757. 454. 907. <
5803 2 0 34 5 757. -454. 907. <
5803 1 0 34 -5 757. -454. 907. <
5804 2 -2 34 -5 13570. 14063. 905. o
5804 1 2 34 5 13570. 14063. 905. o
5805 2 -4 34 -5 1216. 907. 454. <
5805 1 4 34 5 1216. 907. 454. <
5806 2 4 34 5 1216. 907. 907. <
5806 1 -4 34 -5 1216. 907. 907. <
5807 2 -6 34 -5 1610. 454. 454. <
5807 1 6 34 5 1610. 454. 454. <
5808 2 -8 34 -5 475. 907. 907. <
5808 1 8 34 5 475. 907. 907. <
5809 3 -5 -35 7 12818. 11341. 1364. o
5809 2 7 35 -5 12818. 11341. 1364. o
5809 1 -7 35 5 12818. 11341. 1364. o
5810 3 5 -35 -7 12734. 13610. 904. o
5810 2 -7 35 5 12734. 13610. 904. o
5810 1 7 35 -5 12734. 13610. 904. o
5811 3 5 -35 -5 15863. 14517. 913. o
5811 2 -5 35 5 15863. 14517. 913. o
5811 1 5 35 -5 15863. 14517. 913. o
5812 3 5 -35 -3 60020. 63058. 850. o
5812 2 -3 35 5 60020. 63058. 850. o
5812 1 3 35 -5 60020. 63058. 850. o
5813 3 -5 -35 1 56222. 51717. 975. o
5813 2 1 35 -5 56222. 51717. 975. o
5813 1 -1 35 5 56222. 51717. 975. o
5814 3 5 -35 -1 56270. 53985. 943. o
5814 2 -1 35 5 56270. 53985. 943. o
5814 1 1 35 -5 56270. 53985. 943. o
5815 3 -5 -35 -1 56226. 53985. 943. o
5815 2 -1 35 -5 56226. 53985. 943. o
5815 1 1 35 5 56226. 53985. 943. o
5816 3 5 -35 1 56266. 59883. 1319. o
5816 2 1 35 5 56266. 59883. 1319. o
5816 1 -1 35 -5 56266. 59883. 1319. o
5817 3 -5 -35 -3 60088. 66234. 1281. o
5817 2 -3 35 -5 60088. 66234. 1281. o
5817 1 3 35 5 60088. 66234. 1281. o
5818 3 5 -35 3 60237. 45366. 1500. o
5818 2 3 35 5 60237. 45366. 1500. o
5818 1 -3 35 -5 60237. 45366. 1500. o
5819 3 -5 -35 -5 15878. 20414. 1344. o
5819 2 -5 35 -5 15878. 20414. 1344. o
5819 1 5 35 5 15878. 20414. 1344. o
5820 3 -5 -35 -7 12784. 9527. 917. o
5820 2 -7 35 -5 12784. 9527. 917. o
5820 1 7 35 5 12784. 9527. 917. o
5821 3 5 -35 7 12767. 9527. 2272. o
5821 2 7 35 5 12767. 9527. 2272. o
5821 1 -7 35 -5 12767. 9527. 2272. o
5822 2 8 36 -5 115. -907. 1361. <
5822 1 -8 36 5 115. -907. 1361. <
5823 2 -8 36 5 114. 454. 907. <
5823 1 8 36 -5 114. 454. 907. <
5824 2 6 36 -5 293. 907. 907. <
5824 1 -6 36 5 293. 907. 907. <
5825 2 -6 36 5 294. 907. 453. <
5825 1 6 36 -5 294. 907. 453. <
5826 2 4 36 -5 584. 454. 454. <
5826 1 -4 36 5 584. 454. 454. <
5827 2 -4 36 5 582. 907. 454. <
5827 1 4 36 -5 582. 907. 454. <
5828 2 2 36 -5 3592. 4083. 907. o
5828 1 -2 36 5 3592. 4083. 907. o
5829 2 -2 36 5 3593. 3629. 907. o
5829 1 2 36 -5 3593. 3629. 907. o
5830 2 0 36 -5 51. 0. 907. <
5830 1 0 36 5 51. 0. 907. <
5831 2 0 36 5 51. 0. 907. <
5831 1 0 36 -5 51. 0. 907. <
5832 2 -2 36 -5 3593. 4990. 905. o
5832 1 2 36 5 3593. 4990. 905. o
5833 2 2 36 5 3592. 4537. 906. o
5833 1 -2 36 -5 3592. 4537. 906. o
5834 2 -4 36 -5 582. 907. 454. <
5834 1 4 36 5 582. 907. 454. <
5835 2 4 36 5 584. 1815. 907. <
5835 1 -4 36 -5 584. 1815. 907. <
5836 2 -6 36 -5 294. 907. 453. <
5836 1 6 36 5 294. 907. 453. <
5837 2 -8 36 -5 114. 1815. 907. <
5837 1 8 36 5 114. 1815. 907. <
5838 3 -5 -37 7 27713. 22229. 1834. o
5838 2 7 37 -5 27713. 22229. 1834. o
5838 1 -7 37 5 27713. 22229. 1834. o
5839 3 5 -37 -7 27472. 29034. 894. o
5839 2 -7 37 5 27472. 29034. 894. o
5839 1 7 37 -5 27472. 29034. 894. o
5840 3 5 -37 -5 35510. 47180. 1258. o
5840 2 -5 37 5 35510. 47180. 1258. o
5840 1 5 37 -5 35510. 47180. 1258. o
5841 3 5 -37 -3 162708. 188721. 892. o
5841 2 -3 37 5 162708. 188721. 892. o
5841 1 3 37 -5 162708. 188721. 892. o
5842 3 -5 -37 1 170833. 170121. 1385. o
5842 2 1 37 -5 170833. 170121. 1385. o
5842 1 -1 37 5 170833. 170121. 1385. o
5843 3 5 -37 -1 171172. 174657. 1237. o
5843 2 -1 37 5 171172. 174657. 1237. o
5843 1 1 37 -5 171172. 174657. 1237. o
5844 3 -5 -37 -1 171428. 161501. 1651. o
5844 2 -1 37 -5 171428. 161501. 1651. o
5844 1 1 37 5 171428. 161501. 1651. o
5845 3 5 -37 1 170577. 183277. 1442. o
5845 2 1 37 5 170577. 183277. 1442. o
5845 1 -1 37 -5 170577. 183277. 1442. o
5846 3 -5 -37 -3 163109. 186453. 1709. o
5846 2 -3 37 -5 163109. 186453. 1709. o
5846 1 3 37 5 163109. 186453. 1709. o
5847 3 5 -37 3 163294. 161048. 2311. o
5847 2 3 37 5 163294. 161048. 2311. o
5847 1 -3 37 -5 163294. 161048. 2311. o
5848 3 -5 -37 -5 35378. 48088. 1731. o
5848 2 -5 37 -5 35378. 48088. 1731. o
5848 1 5 37 5 35378. 48088. 1731. o
5849 3 -5 -37 -7 27615. 21322. 1390. o
5849 2 -7 37 -5 27615. 21322. 1390. o
5849 1 7 37 5 27615. 21322. 1390. o
5850 3 5 -37 7 27570. 18146. 2742. o
5850 2 7 37 5 27570. 18146. 2742. o
5850 1 -7 37 -5 27570. 18146. 2742. o
5851 2 8 38 -5 33. 907. 1361. <
5851 1 -8 38 5 33. 907. 1361. <
5852 2 -8 38 5 33. -454. 907. <
5852 1 8 38 -5 33. -454. 907. <
5853 2 6 38 -5 0. 454. 907. <
5853 1 -6 38 5 0. 454. 907. <
5854 2 -6 38 5 0. 454. 454. <
5854 1 6 38 -5 0. 454. 454. <
5855 2 4 38 -5 4. 454. 454. <
5855 1 -4 38 5 4. 454. 454. <
5856 2 -4 38 5 3. 1361. 453. o
5856 1 4 38 -5 3. 1361. 453. o
5857 2 2 38 -5 710. 454. 907. <
5857 1 -2 38 5 710. 454. 907. <
5858 2 -2 38 5 711. 907. 907. <
5858 1 2 38 -5 711. 907. 907. <
5859 2 0 38 -5 969. 2268. 452. o
5859 1 0 38 5 969. 2268. 452. o
5860 2 0 38 5 969. 907. 454. <
5860 1 0 38 -5 969. 907. 454. <
5861 2 -2 38 -5 711. 2268. 452. o
5861 1 2 38 5 711. 2268. 452. o
5862 2 2 38 5 710. 1815. 907. <
5862 1 -2 38 -5 710. 1815. 907. <
5863 2 -4 38 -5 3. 1361. 453. o
5863 1 4 38 5 3. 1361. 453. o
5864 2 4 38 5 4. -907. 907. <
5864 1 -4 38 -5 4. -907. 907. <
5865 2 -6 38 -5 0. 907. 453. <
5865 1 6 38 5 0. 907. 453. <
5866 2 -8 38 -5 33. 907. 1361. <
5866 1 8 38 5 33. 907. 1361. <
5867 3 -5 -39 7 1937. -454. 1361. <
5867 2 7 39 -5 1937. -454. 1361. <
5867 1 -7 39 5 1937. -454. 1361. <
5868 3 5 -39 -7 1935. 1361. 908. <
5868 2 -7 39 5 1935. 1361. 908. <
5868 1 7 39 -5 1935. 1361. 908. <
5869 3 -5 -39 5 1600. 454. 908. <
5869 2 5 39 -5 1600. 454. 908. <
5869 1 -5 39 5 1600. 454. 908. <
5870 3 5 -39 -5 1571. 1361. 907. <
5870 2 -5 39 5 1571. 1361. 907. <
5870 1 5 39 -5 1571. 1361. 907. <
5871 3 -5 -39 3 3316. -454. 908. <
5871 2 3 39 -5 3316. -454. 908. <
5871 1 -3 39 5 3316. -454. 908. <
5872 3 5 -39 -3 3295. 0. 908. <
5872 2 -3 39 5 3295. 0. 908. <
5872 1 3 39 -5 3295. 0. 908. <
5873 3 -5 -39 1 2971. 2268. 908. o
5873 2 1 39 -5 2971. 2268. 908. o
5873 1 -1 39 5 2971. 2268. 908. o
5874 3 5 -39 -1 2930. 2722. 454. o
5874 2 -1 39 5 2930. 2722. 454. o
5874 1 1 39 -5 2930. 2722. 454. o
5875 3 -5 -39 -1 2958. 2268. 908. o
5875 2 -1 39 -5 2958. 2268. 908. o
5875 1 1 39 5 2958. 2268. 908. o
5876 3 5 -39 1 2942. 1361. 908. <
5876 2 1 39 5 2942. 1361. 908. <
5876 1 -1 39 -5 2942. 1361. 908. <
5877 3 -5 -39 -3 3306. -2722. 906. <
5877 2 -3 39 -5 3306. -2722. 906. <
5877 1 3 39 5 3306. -2722. 906. <
5878 3 5 -39 3 3306. -907. 1361. <
5878 2 3 39 5 3306. -907. 1361. <
5878 1 -3 39 -5 3306. -907. 1361. <
5879 3 -5 -39 -5 1585. 907. 908. <
5879 2 -5 39 -5 1585. 907. 908. <
5879 1 5 39 5 1585. 907. 908. <
5880 3 5 -39 5 1586. -907. 1361. <
5880 2 5 39 5 1586. -907. 1361. <
5880 1 -5 39 -5 1586. -907. 1361. <
5881 3 -5 -39 -7 1935. 1361. 908. <
5881 2 -7 39 -5 1935. 1361. 908. <
5881 1 7 39 5 1935. 1361. 908. <
5882 3 5 -39 7 1937. -454. 2268. <
5882 2 7 39 5 1937. -454. 2268. <
5882 1 -7 39 -5 1937. -454. 2268. <
5883 2 8 40 -5 58. 907. 1815. <
5883 1 -8 40 5 58. 907. 1815. <
5884 2 -8 40 5 59. 907. 907. <
5884 1 8 40 -5 59. 907. 907. <
5885 2 6 40 -5 290. -454. 907. <
5885 1 -6 40 5 290. -454. 907. <
5886 2 -6 40 5 288. 907. 453. <
5886 1 6 40 -5 288. 907. 453. <
5887 2 4 40 -5 1360. 1361. 907. <
5887 1 -4 40 5 1360. 1361. 907. <
5888 2 -4 40 5 1367. 907. 454. <
5888 1 4 40 -5 1367. 907. 454. <
5889 2 2 40 -5 64. 907. 453. <
5889 1 -2 40 5 64. 907. 453. <
5890 2 -2 40 5 65. 907. 907. <
5890 1 2 40 -5 65. 907. 907. <
5891 2 0 40 -5 9574. 9527. 907. o
5891 1 0 40 5 9574. 9527. 907. o
5892 2 0 40 5 9574. 9527. 454. o
5892 1 0 40 -5 9574. 9527. 454. o
5893 2 -2 40 -5 65. -454. 454. <
5893 1 2 40 5 65. -454. 454. <
5894 2 2 40 5 64. 454. 454. <
5894 1 -2 40 -5 64. 454. 454. <
5895 2 -4 40 -5 1367. 2722. 452. o
5895 1 4 40 5 1367. 2722. 452. o
5896 2 4 40 5 1360. 907. 454. <
5896 1 -4 40 -5 1360. 907. 454. <
5897 2 -6 40 -5 288. 454. 907. <
5897 1 6 40 5 288. 454. 907. <
5898 2 6 40 5 290. 907. 1361. <
5898 1 -6 40 -5 290. 907. 1361. <
5899 2 -8 40 -5 59. 3629. 1359. o
5899 1 8 40 5 59. 3629. 1359. o
5900 3 -5 -41 7 212. 0. 907. <
5900 2 7 41 -5 212. 0. 907. <
5900 1 -7 41 5 212. 0. 907. <
5901 3 5 -41 -7 208. 2722. 906. o
5901 2 -7 41 5 208. 2722. 906. o
5901 1 7 41 -5 208. 2722. 906. o
5902 3 -5 -41 5 338. 1361. 1361. <
5902 2 5 41 -5 338. 1361. 1361. <
5902 1 -5 41 5 338. 1361. 1361. <
5903 3 5 -41 -5 347. 454. 454. <
5903 2 -5 41 5 347. 454. 454. <
5903 1 5 41 -5 347. 454. 454. <
5904 3 -5 -41 3 131. 454. 907. <
5904 2 3 41 -5 131. 454. 907. <
5904 1 -3 41 5 131. 454. 907. <
5905 3 5 -41 -3 121. 907. 453. <
5905 2 -3 41 5 121. 907. 453. <
5905 1 3 41 -5 121. 907. 453. <
5906 3 -5 -41 1 542. 454. 907. <
5906 2 1 41 -5 542. 454. 907. <
5906 1 -1 41 5 542. 454. 907. <
5907 3 5 -41 -1 555. 454. 454. <
5907 2 -1 41 5 555. 454. 454. <
5907 1 1 41 -5 555. 454. 454. <
5908 3 -5 -41 -1 553. 1815. 453. o
5908 2 -1 41 -5 553. 1815. 453. o
5908 1 1 41 5 553. 1815. 453. o
5909 3 5 -41 1 544. 0. 907. <
5909 2 1 41 5 544. 0. 907. <
5909 1 -1 41 -5 544. 0. 907. <
5910 3 -5 -41 -3 126. 454. 907. <
5910 2 -3 41 -5 126. 454. 907. <
5910 1 3 41 5 126. 454. 907. <
5911 3 5 -41 3 127. 3176. 905. o
5911 2 3 41 5 127. 3176. 905. o
5911 1 -3 41 -5 127. 3176. 905. o
5912 3 -5 -41 -5 343. 454. 454. <
5912 2 -5 41 -5 343. 454. 454. <
5912 1 5 41 5 343. 454. 454. <
5913 3 5 -41 5 342. 454. 1361. <
5913 2 5 41 5 342. 454. 1361. <
5913 1 -5 41 -5 342. 454. 1361. <
5914 3 -5 -41 -7 210. 907. 907. <
5914 2 -7 41 -5 210. 907. 907. <
5914 1 7 41 5 210. 907. 907. <
5915 3 5 -41 7 210. 0. 1815. <
5915 2 7 41 5 210. 0. 1815. <
5915 1 -7 41 -5 210. 0. 1815. <
5916 2 8 42 -5 825. -454. 1815. <
5916 1 -8 42 5 825. -454. 1815. <
5917 2 -8 42 5 822. 1815. 907. <
5917 1 8 42 -5 822. 1815. 907. <
5918 2 6 42 -5 1503. 1361. 907. <
5918 1 -6 42 5 1503. 1361. 907. <
5919 2 -6 42 5 1509. 1815. 907. <
5919 1 6 42 -5 1509. 1815. 907. <
5920 2 4 42 -5 24322. 18146. 943. o
5920 1 -4 42 5 24322. 18146. 943. o
5921 2 -4 42 5 24301. 26312. 892. o
5921 1 4 42 -5 24301. 26312. 892. o
5922 2 2 42 -5 466. 907. 453. <
5922 1 -2 42 5 466. 907. 453. <
5923 2 -2 42 5 470. 0. 454. <
5923 1 2 42 -5 470. 0. 454. <
5924 2 0 42 -5 95743. 97536. 1789. o
5924 1 0 42 5 95743. 97536. 1789. o
5925 2 0 42 5 95743. 95268. 1370. o
5925 1 0 42 -5 95743. 95268. 1370. o
5926 2 -2 42 -5 471. 907. 453. <
5926 1 2 42 5 471. 907. 453. <
5927 2 2 42 5 466. 454. 454. <
5927 1 -2 42 -5 466. 454. 454. <
5928 2 -4 42 -5 24301. 24497. 906. o
5928 1 4 42 5 24301. 24497. 906. o
5929 2 -6 42 -5 1509. 2722. 906. o
5929 1 6 42 5 1509. 2722. 906. o
5930 2 -8 42 -5 822. 907. 1815. <
5930 1 8 42 5 822. 907. 1815. <
5931 3 -5 -43 7 408. 907. 907. <
5931 2 7 43 -5 408. 907. 907. <
5931 1 -7 43 5 408. 907. 907. <
5932 3 5 -43 -7 404. 454. 907. <
5932 2 -7 43 5 404. 454. 907. <
5932 1 7 43 -5 404. 454. 907. <
5933 3 -5 -43 5 656. 454. 1361. <
5933 2 5 43 -5 656. 454. 1361. <
5933 1 -5 43 5 656. 454. 1361. <
5934 3 5 -43 -5 660. 1361. 907. <
5934 2 -5 43 5 660. 1361. 907. <
5934 1 5 43 -5 660. 1361. 907. <
5935 3 -5 -43 3 1687. 454. 454. <
5935 2 3 43 -5 1687. 454. 454. <
5935 1 -3 43 5 1687. 454. 454. <
5936 3 5 -43 -3 1688. 1361. 907. <
5936 2 -3 43 5 1688. 1361. 907. <
5936 1 3 43 -5 1688. 1361. 907. <
5937 3 -5 -43 1 2884. 2722. 454. o
5937 2 1 43 -5 2884. 2722. 454. o
5937 1 -1 43 5 2884. 2722. 454. o
5938 3 5 -43 -1 2875. 3176. 453. o
5938 2 -1 43 5 2875. 3176. 453. o
5938 1 1 43 -5 2875. 3176. 453. o
5939 3 -5 -43 -1 2873. 3176. 907. o
5939 2 -1 43 -5 2873. 3176. 907. o
5939 1 1 43 5 2873. 3176. 907. o
5940 3 5 -43 1 2885. 3629. 907. o
5940 2 1 43 5 2885. 3629. 907. o
5940 1 -1 43 -5 2885. 3629. 907. o
5941 3 -5 -43 -3 1690. 1815. 907. <
5941 2 -3 43 -5 1690. 1815. 907. <
5941 1 3 43 5 1690. 1815. 907. <
5942 3 5 -43 3 1684. 907. 908. <
5942 2 3 43 5 1684. 907. 908. <
5942 1 -3 43 -5 1684. 907. 908. <
5943 3 -5 -43 -5 658. -454. 907. <
5943 2 -5 43 -5 658. -454. 907. <
5943 1 5 43 5 658. -454. 907. <
5944 3 5 -43 5 658. 907. 1361. <
5944 2 5 43 5 658. 907. 1361. <
5944 1 -5 43 -5 658. 907. 1361. <
5945 3 -5 -43 -7 406. 454. 907. <
5945 2 -7 43 -5 406. 454. 907. <
5945 1 7 43 5 406. 454. 907. <
5946 3 5 -43 7 407. 1361. 1814. <
5946 2 7 43 5 407. 1361. 1814. <
5946 1 -7 43 -5 407. 1361. 1814. <
5947 2 6 44 -5 750. 454. 907. <
5947 1 -6 44 5 750. 454. 907. <
5948 2 -6 44 5 743. 1361. 907. <
5948 1 6 44 -5 743. 1361. 907. <
5949 2 4 44 -5 11294. 10888. 909. o
5949 1 -4 44 5 11294. 10888. 909. o
5950 2 -4 44 5 11323. 11795. 450. o
5950 1 4 44 -5 11323. 11795. 450. o
5951 2 2 44 -5 274. 1361. 453. o
5951 1 -2 44 5 274. 1361. 453. o
5952 2 -2 44 5 272. -454. 454. <
5952 1 2 44 -5 272. -454. 454. <
5953 2 0 44 -5 47294. 49448. 876. o
5953 1 0 44 5 47294. 49448. 876. o
5954 2 0 44 5 47294. 45819. 927. o
5954 1 0 44 -5 47294. 45819. 927. o
5955 2 -2 44 -5 272. 454. 454. <
5955 1 2 44 5 272. 454. 454. <
5956 2 2 44 5 274. 907. 453. <
5956 1 -2 44 -5 274. 907. 453. <
5957 2 -4 44 -5 11323. 10888. 909. o
5957 1 4 44 5 11323. 10888. 909. o
5958 2 -6 44 -5 743. 454. 907. <
5958 1 6 44 5 743. 454. 907. <
5959 3 -5 -45 7 972. 1815. 907. <
5959 2 7 45 -5 972. 1815. 907. <
5959 1 -7 45 5 972. 1815. 907. <
5960 3 5 -45 -7 975. 1361. 907. <
5960 2 -7 45 5 975. 1361. 907. <
5960 1 7 45 -5 975. 1361. 907. <
5961 3 -5 -45 5 3155. 1361. 908. <
5961 2 5 45 -5 3155. 1361. 908. <
5961 1 -5 45 5 3155. 1361. 908. <
5962 3 5 -45 -5 3162. 3176. 454. o
5962 2 -5 45 5 3162. 3176. 454. o
5962 1 5 45 -5 3162. 3176. 454. o
5963 3 -5 -45 3 8579. 9980. 903. o
5963 2 3 45 -5 8579. 9980. 903. o
5963 1 -3 45 5 8579. 9980. 903. o
5964 3 5 -45 -3 8567. 9980. 903. o
5964 2 -3 45 5 8567. 9980. 903. o
5964 1 3 45 -5 8567. 9980. 903. o
5965 3 -5 -45 1 14628. 13610. 462. o
5965 2 1 45 -5 14628. 13610. 462. o
5965 1 -1 45 5 14628. 13610. 462. o
5966 3 5 -45 -1 14645. 14517. 908. o
5966 2 -1 45 5 14645. 14517. 908. o
5966 1 1 45 -5 14645. 14517. 908. o
5967 3 -5 -45 -1 14657. 16785. 897. o
5967 2 -1 45 -5 14657. 16785. 897. o
5967 1 1 45 5 14657. 16785. 897. o
5968 3 5 -45 1 14617. 13610. 911. o
5968 2 1 45 5 14617. 13610. 911. o
5968 1 -1 45 -5 14617. 13610. 911. o
5969 3 -5 -45 -3 8572. 10434. 902. o
5969 2 -3 45 -5 8572. 10434. 902. o
5969 1 3 45 5 8572. 10434. 902. o
5970 3 5 -45 3 8574. 11341. 899. o
5970 2 3 45 5 8574. 11341. 899. o
5970 1 -3 45 -5 8574. 11341. 899. o
5971 3 -5 -45 -5 3159. 3176. 907. o
5971 2 -5 45 -5 3159. 3176. 907. o
5971 1 5 45 5 3159. 3176. 907. o
5972 3 5 -45 5 3158. 4990. 1359. o
5972 2 5 45 5 3158. 4990. 1359. o
5972 1 -5 45 -5 3158. 4990. 1359. o
5973 3 -5 -45 -7 975. 0. 1361. <
5973 2 -7 45 -5 975. 0. 1361. <
5973 1 7 45 5 975. 0. 1361. <
5974 3 5 -45 7 973. 1815. 2268. <
5974 2 7 45 5 973. 1815. 2268. <
5974 1 -7 45 -5 973. 1815. 2268. <
5975 2 6 46 -5 257. 3176. 905. o
5975 1 -6 46 5 257. 3176. 905. o
5976 2 -6 46 5 256. 907. 907. <
5976 1 6 46 -5 256. 907. 907. <
5977 2 4 46 -5 2179. 907. 908. <
5977 1 -4 46 5 2179. 907. 908. <
5978 2 -4 46 5 2179. 1815. 908. <
5978 1 4 46 -5 2179. 1815. 908. <
5979 2 2 46 -5 128. 454. 454. <
5979 1 -2 46 5 128. 454. 454. <
5980 2 -2 46 5 128. 907. 453. <
5980 1 2 46 -5 128. 907. 453. <
5981 2 0 46 -5 8301. 7258. 458. o
5981 1 0 46 5 8301. 7258. 458. o
5982 2 0 46 5 8301. 7712. 909. o
5982 1 0 46 -5 8301. 7712. 909. o
5983 2 -2 46 -5 128. 907. 453. <
5983 1 2 46 5 128. 907. 453. <
5984 2 2 46 5 128. 454. 907. <
5984 1 -2 46 -5 128. 454. 907. <
5985 2 -4 46 -5 2179. 907. 908. <
5985 1 4 46 5 2179. 907. 908. <
5986 2 4 46 5 2179. 3176. 1360. o
5986 1 -4 46 -5 2179. 3176. 1360. o
5987 2 -6 46 -5 256. 0. 907. <
5987 1 6 46 5 256. 0. 907. <
5988 2 6 46 5 257. 907. 1361. <
5988 1 -6 46 -5 257. 907. 1361. <
5989 3 -5 -47 7 4250. 5898. 1359. o
5989 2 7 47 -5 4250. 5898. 1359. o
5989 1 -7 47 5 4250. 5898. 1359. o
5990 3 5 -47 -7 4269. 5444. 906. o
5990 2 -7 47 5 4269. 5444. 906. o
5990 1 7 47 -5 4269. 5444. 906. o
5991 3 -5 -47 5 9240. 7258. 912. o
5991 2 5 47 -5 9240. 7258. 912. o
5991 1 -5 47 5 9240. 7258. 912. o
5992 3 5 -47 -5 9293. 9073. 908. o
5992 2 -5 47 5 9293. 9073. 908. o
5992 1 5 47 -5 9293. 9073. 908. o
5993 3 -5 -47 3 29146. 43551. 1247. o
5993 2 3 47 -5 29146. 43551. 1247. o
5993 1 -3 47 5 29146. 43551. 1247. o
5994 3 5 -47 -3 29227. 38561. 1295. o
5994 2 -3 47 5 29227. 38561. 1295. o
5994 1 3 47 -5 29227. 38561. 1295. o
5995 3 -5 -47 1 43434. 39014. 958. o
5995 2 1 47 -5 43434. 39014. 958. o
5995 1 -1 47 5 43434. 39014. 958. o
5996 3 5 -47 -1 43474. 39922. 949. o
5996 2 -1 47 5 43474. 39922. 949. o
5996 1 1 47 -5 43474. 39922. 949. o
5997 3 -5 -47 -1 43494. 42644. 918. o
5997 2 -1 47 -5 43494. 42644. 918. o
5997 1 1 47 5 43494. 42644. 918. o
5998 3 5 -47 1 43414. 44005. 900. o
5998 2 1 47 5 43414. 44005. 900. o
5998 1 -1 47 -5 43414. 44005. 900. o
5999 3 -5 -47 -3 29215. 34024. 1330. o
5999 2 -3 47 -5 29215. 34024. 1330. o
5999 1 3 47 5 29215. 34024. 1330. o
6000 3 5 -47 3 29158. 34478. 855. o
6000 2 3 47 5 29158. 34478. 855. o
6000 1 -3 47 -5 29158. 34478. 855. o
6001 3 -5 -47 -5 9268. 4537. 916. o
6001 2 -5 47 -5 9268. 4537. 916. o
6001 1 5 47 5 9268. 4537. 916. o
6002 3 5 -47 5 9265. 9980. 1360. o
6002 2 5 47 5 9265. 9980. 1360. o
6002 1 -5 47 -5 9265. 9980. 1360. o
6003 3 -5 -47 -7 4255. 6805. 1358. o
6003 2 -7 47 -5 4255. 6805. 1358. o
6003 1 7 47 5 4255. 6805. 1358. o
6004 3 5 -47 7 4265. 2268. 2269. <
6004 2 7 47 5 4265. 2268. 2269. <
6004 1 -7 47 -5 4265. 2268. 2269. <
6005 2 6 48 -5 51. 2268. 906. o
6005 1 -6 48 5 51. 2268. 906. o
6006 2 -6 48 5 52. 907. 907. <
6006 1 6 48 -5 52. 907. 907. <
6007 2 4 48 -5 334. 907. 907. <
6007 1 -4 48 5 334. 907. 907. <
6008 2 -4 48 5 333. 907. 907. <
6008 1 4 48 -5 333. 907. 907. <
6009 2 2 48 -5 196. 1361. 907. <
6009 1 -2 48 5 196. 1361. 907. <
6010 2 -2 48 5 197. 907. 453. <
6010 1 2 48 -5 197. 907. 453. <
6011 2 0 48 -5 2751. 2268. 908. o
6011 1 0 48 5 2751. 2268. 908. o
6012 2 0 48 5 2751. 3176. 907. o
6012 1 0 48 -5 2751. 3176. 907. o
6013 2 -2 48 -5 197. 0. 907. <
6013 1 2 48 5 197. 0. 907. <
6014 2 2 48 5 196. 0. 907. <
6014 1 -2 48 -5 196. 0. 907. <
6015 2 -4 48 -5 333. 454. 907. <
6015 1 4 48 5 333. 454. 907. <
6016 2 4 48 5 334. 907. 1361. <
6016 1 -4 48 -5 334. 907. 1361. <
6017 2 -6 48 -5 52. 1361. 907. <
6017 1 6 48 5 52. 1361. 907. <
6018 2 6 48 5 51. 907. 1361. <
6018 1 -6 48 -5 51. 907. 1361. <
6019 3 -5 -49 7 11442. 11795. 1814. o
6019 2 7 49 -5 11442. 11795. 1814. o
6019 1 -7 49 5 11442. 11795. 1814. o
6020 3 5 -49 -7 11398. 11341. 1361. o
6020 2 -7 49 5 11398. 11341. 1361. o
6020 1 7 49 -5 11398. 11341. 1361. o
6021 3 -5 -49 5 27670. 31756. 1336. o
6021 2 5 49 -5 27670. 31756. 1336. o
6021 1 -5 49 5 27670. 31756. 1336. o
6022 3 5 -49 -5 27866. 32663. 1331. o
6022 2 -5 49 5 27866. 32663. 1331. o
6022 1 5 49 -5 27866. 32663. 1331. o
6023 3 -5 -49 3 86304. 131560. 694. o
6023 2 3 49 -5 86304. 131560. 694. o
6023 1 -3 49 5 86304. 131560. 694. o
6024 3 5 -49 -3 86308. 117043. 1842. o
6024 2 -3 49 5 86308. 117043. 1842. o
6024 1 3 49 -5 86308. 117043. 1842. o
6025 3 -5 -49 1 118278. 114321. 1881. o
6025 2 1 49 -5 118278. 114321. 1881. o
6025 1 -1 49 5 118278. 114321. 1881. o
6026 3 5 -49 -1 118677. 115229. 2315. o
6026 2 -1 49 5 118677. 115229. 2315. o
6026 1 1 49 -5 118677. 115229. 2315. o
6027 3 -5 -49 -1 118485. 133828. 1497. o
6027 2 -1 49 -5 118485. 133828. 1497. o
6027 1 1 49 5 118485. 133828. 1497. o
6028 3 5 -49 1 118470. 137458. 1402. o
6028 2 1 49 5 118470. 137458. 1402. o
6028 1 -1 49 -5 118470. 137458. 1402. o
6029 3 -5 -49 -3 86257. 96175. 1674. o
6029 2 -3 49 -5 86257. 96175. 1674. o
6029 1 3 49 5 86257. 96175. 1674. o
6030 3 5 -49 3 86356. 92546. 1246. o
6030 2 3 49 5 86356. 92546. 1246. o
6030 1 -3 49 -5 86356. 92546. 1246. o
6031 3 -5 -49 -5 27774. 24951. 929. o
6031 2 -5 49 -5 27774. 24951. 929. o
6031 1 5 49 5 27774. 24951. 929. o
6032 3 5 -49 5 27762. 44005. 1720. o
6032 2 5 49 5 27762. 44005. 1720. o
6032 1 -5 49 -5 27762. 44005. 1720. o
6033 3 -5 -49 -7 11429. 5444. 1370. o
6033 2 -7 49 -5 11429. 5444. 1370. o
6033 1 7 49 5 11429. 5444. 1370. o
6034 3 5 -49 7 11411. 9073. 2724. o
6034 2 7 49 5 11411. 9073. 2724. o
6034 1 -7 49 -5 11411. 9073. 2724. o
6035 2 6 50 -5 8. 1815. 907. <
6035 1 -6 50 5 8. 1815. 907. <
6036 2 -6 50 5 8. -454. 907. <
6036 1 6 50 -5 8. -454. 907. <
6037 2 4 50 -5 40. 907. 907. <
6037 1 -4 50 5 40. 907. 907. <
6038 2 -4 50 5 40. 0. 907. <
6038 1 4 50 -5 40. 0. 907. <
6039 2 2 50 -5 718. 1815. 453. o
6039 1 -2 50 5 718. 1815. 453. o
6040 2 -2 50 5 717. 1815. 453. o
6040 1 2 50 -5 717. 1815. 453. o
6041 2 0 50 -5 783. 1815. 907. <
6041 1 0 50 5 783. 1815. 907. <
6042 2 0 50 5 783. 1361. 453. o
6042 1 0 50 -5 783. 1361. 453. o
6043 2 -2 50 -5 717. 1361. 453. o
6043 1 2 50 5 717. 1361. 453. o
6044 2 2 50 5 718. 454. 454. <
6044 1 -2 50 -5 718. 454. 454. <
6045 2 -4 50 -5 40. 0. 907. <
6045 1 4 50 5 40. 0. 907. <
6046 2 4 50 5 40. 454. 907. <
6046 1 -4 50 -5 40. 454. 907. <
6047 2 -6 50 -5 8. 0. 907. <
6047 1 6 50 5 8. 0. 907. <
6048 2 6 50 5 8. 907. 1361. <
6048 1 -6 50 -5 8. 907. 1361. <
6049 3 -5 -51 7 778. 907. 1361. <
6049 2 7 51 -5 778. 907. 1361. <
6049 1 -7 51 5 778. 907. 1361. <
6050 3 5 -51 -7 783. -454. 1361. <
6050 2 -7 51 5 783. -454. 1361. <
6050 1 7 51 -5 783. -454. 1361. <
6051 3 -5 -51 5 506. -907. 907. <
6051 2 5 51 -5 506. -907. 907. <
6051 1 -5 51 5 506. -907. 907. <
6052 3 5 -51 -5 516. 907. 907. <
6052 2 -5 51 5 516. 907. 907. <
6052 1 5 51 -5 516. 907. 907. <
6053 3 -5 -51 3 1405. 907. 907. <
6053 2 3 51 -5 1405. 907. 907. <
6053 1 -3 51 5 1405. 907. 907. <
6054 3 5 -51 -3 1440. -454. 1361. <
6054 2 -3 51 5 1440. -454. 1361. <
6054 1 3 51 -5 1440. -454. 1361. <
6055 3 -5 -51 1 1090. 907. 454. <
6055 2 1 51 -5 1090. 907. 454. <
6055 1 -1 51 5 1090. 907. 454. <
6056 3 5 -51 -1 1122. -1361. 1361. <
6056 2 -1 51 5 1122. -1361. 1361. <
6056 1 1 51 -5 1122. -1361. 1361. <
6057 3 -5 -51 -1 1101. 1361. 907. <
6057 2 -1 51 -5 1101. 1361. 907. <
6057 1 1 51 5 1101. 1361. 907. <
6058 3 5 -51 1 1110. -454. 907. <
6058 2 1 51 5 1110. -454. 907. <
6058 1 -1 51 -5 1110. -454. 907. <
6059 3 -5 -51 -3 1423. -2268. 1360. <
6059 2 -3 51 -5 1423. -2268. 1360. <
6059 1 3 51 5 1423. -2268. 1360. <
6060 3 5 -51 3 1423. 454. 908. <
6060 2 3 51 5 1423. 454. 908. <
6060 1 -3 51 -5 1423. 454. 908. <
6061 3 -5 -51 -5 511. 454. 907. <
6061 2 -5 51 -5 511. 454. 907. <
6061 1 5 51 5 511. 454. 907. <
6062 3 5 -51 5 511. -454. 1361. <
6062 2 5 51 5 511. -454. 1361. <
6062 1 -5 51 -5 511. -454. 1361. <
6063 3 -5 -51 -7 780. 3176. 1814. <
6063 2 -7 51 -5 780. 3176. 1814. <
6063 1 7 51 5 780. 3176. 1814. <
6064 3 5 -51 7 781. 454. 2268. <
6064 2 7 51 5 781. 454. 2268. <
6064 1 -7 51 -5 781. 454. 2268. <
6065 2 6 52 -5 158. 907. 907. <
6065 1 -6 52 5 158. 907. 907. <
6066 2 -6 52 5 157. 1361. 1361. <
6066 1 6 52 -5 157. 1361. 1361. <
6067 2 4 52 -5 38. -907. 907. <
6067 1 -4 52 5 38. -907. 907. <
6068 2 -4 52 5 38. 1815. 907. <
6068 1 4 52 -5 38. 1815. 907. <
6069 2 2 52 -5 2428. 3176. 452. o
6069 1 -2 52 5 2428. 3176. 452. o
6070 2 -2 52 5 2423. 4537. 1359. o
6070 1 2 52 -5 2423. 4537. 1359. o
6071 2 0 52 -5 160. -907. 907. <
6071 1 0 52 5 160. -907. 907. <
6072 2 0 52 5 160. -907. 453. <
6072 1 0 52 -5 160. -907. 453. <
6073 2 -2 52 -5 2423. 3176. 907. o
6073 1 2 52 5 2423. 3176. 907. o
6074 2 2 52 5 2428. 3176. 907. o
6074 1 -2 52 -5 2428. 3176. 907. o
6075 2 -4 52 -5 38. 0. 907. <
6075 1 4 52 5 38. 0. 907. <
6076 2 4 52 5 38. 907. 907. <
6076 1 -4 52 -5 38. 907. 907. <
6077 2 -6 52 -5 157. 1361. 907. <
6077 1 6 52 5 157. 1361. 907. <
6078 2 6 52 5 158. 1361. 1361. <
6078 1 -6 52 -5 158. 1361. 1361. <
6079 3 -5 -53 7 80. 2722. 1814. <
6079 2 7 53 -5 80. 2722. 1814. <
6079 1 -7 53 5 80. 2722. 1814. <
6080 3 5 -53 -7 79. 2722. 1360. <
6080 2 -7 53 5 79. 2722. 1360. <
6080 1 7 53 -5 79. 2722. 1360. <
6081 3 -5 -53 5 232. 454. 907. <
6081 2 5 53 -5 232. 454. 907. <
6081 1 -5 53 5 232. 454. 907. <
6082 3 5 -53 -5 234. 454. 907. <
6082 2 -5 53 5 234. 454. 907. <
6082 1 5 53 -5 234. 454. 907. <
6083 3 -5 -53 3 279. 1815. 907. <
6083 2 3 53 -5 279. 1815. 907. <
6083 1 -3 53 5 279. 1815. 907. <
6084 3 5 -53 -3 274. 907. 1361. <
6084 2 -3 53 5 274. 907. 1361. <
6084 1 3 53 -5 274. 907. 1361. <
6085 3 -5 -53 1 685. 1815. 453. o
6085 2 1 53 -5 685. 1815. 453. o
6085 1 -1 53 5 685. 1815. 453. o
6086 3 5 -53 -1 692. 1361. 1361. <
6086 2 -1 53 5 692. 1361. 1361. <
6086 1 1 53 -5 692. 1361. 1361. <
6087 3 -5 -53 -1 689. 1815. 907. <
6087 2 -1 53 -5 689. 1815. 907. <
6087 1 1 53 5 689. 1815. 907. <
6088 3 5 -53 1 688. 1815. 453. o
6088 2 1 53 5 688. 1815. 453. o
6088 1 -1 53 -5 688. 1815. 453. o
6089 3 -5 -53 -3 275. 907. 1361. <
6089 2 -3 53 -5 275. 907. 1361. <
6089 1 3 53 5 275. 907. 1361. <
6090 3 5 -53 3 278. 1361. 1361. <
6090 2 3 53 5 278. 1361. 1361. <
6090 1 -3 53 -5 278. 1361. 1361. <
6091 3 -5 -53 -5 233. 454. 907. <
6091 2 -5 53 -5 233. 454. 907. <
6091 1 5 53 5 233. 454. 907. <
6092 3 5 -53 5 233. -907. 1361. <
6092 2 5 53 5 233. -907. 1361. <
6092 1 -5 53 -5 233. -907. 1361. <
6093 3 -5 -53 -7 80. 454. 1815. <
6093 2 -7 53 -5 80. 454. 1815. <
6093 1 7 53 5 80. 454. 1815. <
6094 3 5 -53 7 80. 454. 2722. <
6094 2 7 53 5 80. 454. 2722. <
6094 1 -7 53 -5 80. 454. 2722. <
6095 2 6 54 -5 1104. 907. 907. <
6095 1 -6 54 5 1104. 907. 907. <
6096 2 -6 54 5 1108. 907. 907. <
6096 1 6 54 -5 1108. 907. 907. <
6097 2 4 54 -5 184. 907. 907. <
6097 1 -4 54 5 184. 907. 907. <
6098 2 -4 54 5 182. 0. 907. <
6098 1 4 54 -5 182. 0. 907. <
6099 2 2 54 -5 13202. 12249. 911. o
6099 1 -2 54 5 13202. 12249. 911. o
6100 2 -2 54 5 13212. 14517. 1357. o
6100 1 2 54 -5 13212. 14517. 1357. o
6101 2 0 54 -5 20. -454. 454. <
6101 1 0 54 5 20. -454. 454. <
6102 2 0 54 5 20. 1361. 453. o
6102 1 0 54 -5 20. 1361. 453. o
6103 2 -2 54 -5 13212. 10888. 915. o
6103 1 2 54 5 13212. 10888. 915. o
6104 2 2 54 5 13202. 13610. 906. o
6104 1 -2 54 -5 13202. 13610. 906. o
6105 2 -4 54 -5 182. 0. 907. <
6105 1 4 54 5 182. 0. 907. <
6106 2 4 54 5 184. 1361. 907. <
6106 1 -4 54 -5 184. 1361. 907. <
6107 2 -6 54 -5 1108. -907. 1815. <
6107 1 6 54 5 1108. -907. 1815. <
6108 2 6 54 5 1104. 1361. 1361. <
6108 1 -6 54 -5 1104. 1361. 1361. <
6109 3 -5 -55 5 516. 454. 907. <
6109 2 5 55 -5 516. 454. 907. <
6109 1 -5 55 5 516. 454. 907. <
6110 3 5 -55 -5 514. 1815. 1361. <
6110 2 -5 55 5 514. 1815. 1361. <
6110 1 5 55 -5 514. 1815. 1361. <
6111 3 -5 -55 3 846. 1815. 907. <
6111 2 3 55 -5 846. 1815. 907. <
6111 1 -3 55 5 846. 1815. 907. <
6112 3 5 -55 -3 846. 1815. 1361. <
6112 2 -3 55 5 846. 1815. 1361. <
6112 1 3 55 -5 846. 1815. 1361. <
6113 3 -5 -55 1 1392. 907. 454. <
6113 2 1 55 -5 1392. 907. 454. <
6113 1 -1 55 5 1392. 907. 454. <
6114 3 5 -55 -1 1378. 907. 454. <
6114 2 -1 55 5 1378. 907. 454. <
6114 1 1 55 -5 1378. 907. 454. <
6115 3 -5 -55 -1 1379. 1361. 1361. <
6115 2 -1 55 -5 1379. 1361. 1361. <
6115 1 1 55 5 1379. 1361. 1361. <
6116 3 5 -55 1 1391. 907. 454. <
6116 2 1 55 5 1391. 907. 454. <
6116 1 -1 55 -5 1391. 907. 454. <
6117 3 -5 -55 -3 847. 1815. 907. <
6117 2 -3 55 -5 847. 1815. 907. <
6117 1 3 55 5 847. 1815. 907. <
6118 3 5 -55 3 845. 1815. 1361. <
6118 2 3 55 5 845. 1815. 1361. <
6118 1 -3 55 -5 845. 1815. 1361. <
6119 3 -5 -55 -5 515. 2268. 906. o
6119 2 -5 55 -5 515. 2268. 906. o
6119 1 5 55 5 515. 2268. 906. o
6120 3 5 -55 5 515. 0. 1361. <
6120 2 5 55 5 515. 0. 1361. <
6120 1 -5 55 -5 515. 0. 1361. <
6121 2 6 56 -5 980. -454. 907. <
6121 1 -6 56 5 980. -454. 907. <
6122 2 -6 56 5 975. 1361. 907. <
6122 1 6 56 -5 975. 1361. 907. <
6123 2 4 56 -5 445. 454. 907. <
6123 1 -4 56 5 445. 454. 907. <
6124 2 -4 56 5 446. -454. 1361. <
6124 1 4 56 -5 446. -454. 1361. <
6125 2 2 56 -5 17406. 16785. 910. o
6125 1 -2 56 5 17406. 16785. 910. o
6126 2 -2 56 5 17392. 15878. 1366. o
6126 1 2 56 -5 17392. 15878. 1366. o
6127 2 0 56 -5 3107. 907. 456. <
6127 1 0 56 5 3107. 907. 456. <
6128 2 0 56 5 3107. 2268. 908. o
6128 1 0 56 -5 3107. 2268. 908. o
6129 2 -2 56 -5 17392. 17693. 906. o
6129 1 2 56 5 17392. 17693. 906. o
6130 2 2 56 5 17406. 25405. 1325. o
6130 1 -2 56 -5 17406. 25405. 1325. o
6131 2 -4 56 -5 446. -907. 907. <
6131 1 4 56 5 446. -907. 907. <
6132 2 4 56 5 445. 907. 1361. <
6132 1 -4 56 -5 445. 907. 1361. <
6133 2 -6 56 -5 975. -454. 1815. <
6133 1 6 56 5 975. -454. 1815. <
6134 2 6 56 5 980. 907. 1361. <
6134 1 -6 56 -5 980. 907. 1361. <
6135 3 -5 -57 5 1311. 1815. 907. <
6135 2 5 57 -5 1311. 1815. 907. <
6135 1 -5 57 5 1311. 1815. 907. <
6136 3 5 -57 -5 1307. 3176. 1814. <
6136 2 -5 57 5 1307. 3176. 1814. <
6136 1 5 57 -5 1307. 3176. 1814. <
6137 3 -5 -57 3 2481. 2268. 907. o
6137 2 3 57 -5 2481. 2268. 907. o
6137 1 -3 57 5 2481. 2268. 907. o
6138 3 5 -57 -3 2477. -454. 1361. <
6138 2 -3 57 5 2477. -454. 1361. <
6138 1 3 57 -5 2477. -454. 1361. <
6139 3 -5 -57 1 3628. 2722. 908. o
6139 2 1 57 -5 3628. 2722. 908. o
6139 1 -1 57 5 3628. 2722. 908. o
6140 3 5 -57 -1 3636. 3629. 907. o
6140 2 -1 57 5 3636. 3629. 907. o
6140 1 1 57 -5 3636. 3629. 907. o
6141 3 -5 -57 -1 3629. 3176. 1361. o
6141 2 -1 57 -5 3629. 3176. 1361. o
6141 1 1 57 5 3629. 3176. 1361. o
6142 3 5 -57 1 3635. 4083. 907. o
6142 2 1 57 5 3635. 4083. 907. o
6142 1 -1 57 -5 3635. 4083. 907. o
6143 3 -5 -57 -3 2474. 2268. 907. o
6143 2 -3 57 -5 2474. 2268. 907. o
6143 1 3 57 5 2474. 2268. 907. o
6144 3 5 -57 3 2483. 3176. 907. o
6144 2 3 57 5 2483. 3176. 907. o
6144 1 -3 57 -5 2483. 3176. 907. o
6145 3 -5 -57 -5 1309. -907. 1361. <
6145 2 -5 57 -5 1309. -907. 1361. <
6145 1 5 57 5 1309. -907. 1361. <
6146 3 5 -57 5 1309. 2722. 1360. <
6146 2 5 57 5 1309. 2722. 1360. <
6146 1 -5 57 -5 1309. 2722. 1360. <
6147 2 6 58 -5 90. 0. 1361. <
6147 1 -6 58 5 90. 0. 1361. <
6148 2 -6 58 5 89. 2722. 1814. <
6148 1 6 58 -5 89. 2722. 1814. <
6149 2 4 58 -5 63. -907. 907. <
6149 1 -4 58 5 63. -907. 907. <
6150 2 -4 58 5 63. 2722. 906. o
6150 1 4 58 -5 63. 2722. 906. o
6151 2 2 58 -5 1054. 907. 907. <
6151 1 -2 58 5 1054. 907. 907. <
6152 2 -2 58 5 1054. 0. 1361. <
6152 1 2 58 -5 1054. 0. 1361. <
6153 2 0 58 -5 36. 907. 453. <
6153 1 0 58 5 36. 907. 453. <
6154 2 0 58 5 36. -907. 907. <
6154 1 0 58 -5 36. -907. 907. <
6155 2 -2 58 -5 1054. 907. 907. <
6155 1 2 58 5 1054. 907. 907. <
6156 2 2 58 5 1054. 1815. 1361. <
6156 1 -2 58 -5 1054. 1815. 1361. <
6157 2 -4 58 -5 63. -907. 907. <
6157 1 4 58 5 63. -907. 907. <
6158 2 4 58 5 63. -454. 1361. <
6158 1 -4 58 -5 63. -454. 1361. <
6159 2 -6 58 -5 89. 1815. 1814. <
6159 1 6 58 5 89. 1815. 1814. <
6160 2 6 58 5 90. 454. 1361. <
6160 1 -6 58 -5 90. 454. 1361. <
6161 3 -5 -59 5 2551. 907. 908. <
6161 2 5 59 -5 2551. 907. 908. <
6161 1 -5 59 5 2551. 907. 908. <
6162 3 5 -59 -5 2527. 907. 908. <
6162 2 -5 59 5 2527. 907. 908. <
6162 1 5 59 -5 2527. 907. 908. <
6163 3 -5 -59 3 4938. 4990. 907. o
6163 2 3 59 -5 4938. 4990. 907. o
6163 1 -3 59 5 4938. 4990. 907. o
6164 3 5 -59 -3 4914. 4990. 1815. o
6164 2 -3 59 5 4914. 4990. 1815. o
6164 1 3 59 -5 4914. 4990. 1815. o
6165 3 -5 -59 1 5446. 4537. 909. o
6165 2 1 59 -5 5446. 4537. 909. o
6165 1 -1 59 5 5446. 4537. 909. o
6166 3 5 -59 -1 5437. 5898. 1360. o
6166 2 -1 59 5 5437. 5898. 1360. o
6166 1 1 59 -5 5437. 5898. 1360. o
6167 3 -5 -59 -1 5428. 4990. 908. o
6167 2 -1 59 -5 5428. 4990. 908. o
6167 1 1 59 5 5428. 4990. 908. o
6168 3 5 -59 1 5455. 9527. 1354. o
6168 2 1 59 5 5455. 9527. 1354. o
6168 1 -1 59 -5 5455. 9527. 1354. o
6169 3 -5 -59 -3 4915. 2722. 910. o
6169 2 -3 59 -5 4915. 2722. 910. o
6169 1 3 59 5 4915. 2722. 910. o
6170 3 5 -59 3 4937. 6351. 905. o
6170 2 3 59 5 4937. 6351. 905. o
6170 1 -3 59 -5 4937. 6351. 905. o
6171 3 -5 -59 -5 2538. -2268. 1360. <
6171 2 -5 59 -5 2538. -2268. 1360. <
6171 1 5 59 5 2538. -2268. 1360. <
6172 3 5 -59 5 2539. 2268. 1361. <
6172 2 5 59 5 2539. 2268. 1361. <
6172 1 -5 59 -5 2539. 2268. 1361. <
6173 2 6 60 -5 32. 907. 1361. <
6173 1 -6 60 5 32. 907. 1361. <
6174 2 -6 60 5 33. 454. 1815. <
6174 1 6 60 -5 33. 454. 1815. <
6175 2 4 60 -5 1. 907. 907. <
6175 1 -4 60 5 1. 907. 907. <
6176 2 -4 60 5 1. -454. 907. <
6176 1 4 60 -5 1. -454. 907. <
6177 2 2 60 -5 92. 454. 907. <
6177 1 -2 60 5 92. 454. 907. <
6178 2 -2 60 5 92. 454. 907. <
6178 1 2 60 -5 92. 454. 907. <
6179 2 0 60 -5 132. 907. 907. <
6179 1 0 60 5 132. 907. 907. <
6180 2 0 60 5 132. 454. 907. <
6180 1 0 60 -5 132. 454. 907. <
6181 2 -2 60 -5 92. 907. 907. <
6181 1 2 60 5 92. 907. 907. <
6182 2 2 60 5 91. -1815. 907. <
6182 1 -2 60 -5 91. -1815. 907. <
6183 2 -4 60 -5 1. 0. 907. <
6183 1 4 60 5 1. 0. 907. <
6184 2 4 60 5 1. 454. 1361. <
6184 1 -4 60 -5 1. 454. 1361. <
6185 2 -6 60 -5 33. 1815. 1814. <
6185 1 6 60 5 33. 1815. 1814. <
6186 2 6 60 5 32. 907. 1815. <
6186 1 -6 60 -5 32. 907. 1815. <
6187 3 -5 -61 5 11345. 14517. 1353. o
6187 2 5 61 -5 11345. 14517. 1353. o
6187 1 -5 61 5 11345. 14517. 1353. o
6188 3 5 -61 -5 11326. 9980. 2270. o
6188 2 -5 61 5 11326. 9980. 2270. o
6188 1 5 61 -5 11326. 9980. 2270. o
6189 3 -5 -61 3 25578. 27673. 891. o
6189 2 3 61 -5 25578. 27673. 891. o
6189 1 -3 61 5 25578. 27673. 891. o
6190 3 5 -61 -3 25471. 24951. 2270. o
6190 2 -3 61 5 25471. 24951. 2270. o
6190 1 3 61 -5 25471. 24951. 2270. o
6191 3 -5 -61 1 36462. 38561. 1345. o
6191 2 1 61 -5 36462. 38561. 1345. o
6191 1 -1 61 5 36462. 38561. 1345. o
6192 3 5 -61 -1 36402. 39014. 1341. o
6192 2 -1 61 5 36402. 39014. 1341. o
6192 1 1 61 -5 36402. 39014. 1341. o
6193 3 -5 -61 -1 36463. 36746. 1359. o
6193 2 -1 61 -5 36463. 36746. 1359. o
6193 1 1 61 5 36463. 36746. 1359. o
6194 3 5 -61 1 36401. 41283. 1786. o
6194 2 1 61 5 36401. 41283. 1786. o
6194 1 -1 61 -5 36401. 41283. 1786. o
6195 3 -5 -61 -3 25522. 14517. 1400. o
6195 2 -3 61 -5 25522. 14517. 1400. o
6195 1 3 61 5 25522. 14517. 1400. o
6196 3 5 -61 3 25527. 49448. 1662. o
6196 2 3 61 5 25527. 49448. 1662. o
6196 1 -3 61 -5 25527. 49448. 1662. o
6197 3 -5 -61 -5 11335. 4537. 1821. o
6197 2 -5 61 -5 11335. 4537. 1821. o
6197 1 5 61 5 11335. 4537. 1821. o
6198 3 5 -61 5 11336. 18600. 1797. o
6198 2 5 61 5 11336. 18600. 1797. o
6198 1 -5 61 -5 11336. 18600. 1797. o
6199 2 6 62 -5 3. 454. 1361. <
6199 1 -6 62 5 3. 454. 1361. <
6200 2 -6 62 5 3. 3629. 2267. <
6200 1 6 62 -5 3. 3629. 2267. <
6201 2 4 62 -5 24. 454. 907. <
6201 1 -4 62 5 24. 454. 907. <
6202 2 -4 62 5 24. -454. 907. <
6202 1 4 62 -5 24. -454. 907. <
6203 2 2 62 -5 24. 1361. 907. <
6203 1 -2 62 5 24. 1361. 907. <
6204 2 -2 62 5 25. 907. 907. <
6204 1 2 62 -5 25. 907. 907. <
6205 2 0 62 -5 271. 2268. 1360. <
6205 1 0 62 5 271. 2268. 1360. <
6206 2 0 62 5 271. 1361. 1361. <
6206 1 0 62 -5 271. 1361. 1361. <
6207 2 -2 62 -5 25. 454. 907. <
6207 1 2 62 5 25. 454. 907. <
6208 2 2 62 5 24. 2268. 906. o
6208 1 -2 62 -5 24. 2268. 906. o
6209 2 -4 62 -5 24. 907. 907. <
6209 1 4 62 5 24. 907. 907. <
6210 2 4 62 5 24. 454. 907. <
6210 1 -4 62 -5 24. 454. 907. <
6211 2 -6 62 -5 3. 1361. 2268. <
6211 1 6 62 5 3. 1361. 2268. <
6212 2 6 62 5 3. 454. 1361. <
6212 1 -6 62 -5 3. 454. 1361. <
6213 3 -5 -63 5 518. -907. 1361. <
6213 2 5 63 -5 518. -907. 1361. <
6213 1 -5 63 5 518. -907. 1361. <
6214 3 5 -63 -5 509. 5444. 2266. o
6214 2 -5 63 5 509. 5444. 2266. o
6214 1 5 63 -5 509. 5444. 2266. o
6215 3 -5 -63 3 753. 1815. 907. <
6215 2 3 63 -5 753. 1815. 907. <
6215 1 -3 63 5 753. 1815. 907. <
6216 3 5 -63 -3 734. 5444. 1812. o
6216 2 -3 63 5 734. 5444. 1812. o
6216 1 3 63 -5 734. 5444. 1812. o
6217 3 -5 -63 1 123. 1361. 907. <
6217 2 1 63 -5 123. 1361. 907. <
6217 1 -1 63 5 123. 1361. 907. <
6218 3 5 -63 -1 104. 1361. 1361. <
6218 2 -1 63 5 104. 1361. 1361. <
6218 1 1 63 -5 104. 1361. 1361. <
6219 3 -5 -63 -1 120. 0. 907. <
6219 2 -1 63 -5 120. 0. 907. <
6219 1 1 63 5 120. 0. 907. <
6220 3 5 -63 1 107. -454. 1361. <
6220 2 1 63 5 107. -454. 1361. <
6220 1 -1 63 -5 107. -454. 1361. <
6221 3 -5 -63 -3 744. -2722. 906. <
6221 2 -3 63 -5 744. -2722. 906. <
6221 1 3 63 5 744. -2722. 906. <
6222 3 5 -63 3 743. -907. 907. <
6222 2 3 63 5 743. -907. 907. <
6222 1 -3 63 -5 743. -907. 907. <
6223 3 -5 -63 -5 513. 1361. 1814. <
6223 2 -5 63 -5 513. 1361. 1814. <
6223 1 5 63 5 513. 1361. 1814. <
6224 3 5 -63 5 514. -1361. 1361. <
6224 2 5 63 5 514. -1361. 1361. <
6224 1 -5 63 -5 514. -1361. 1361. <
6225 2 4 64 -5 146. 1815. 907. <
6225 1 -4 64 5 146. 1815. 907. <
6226 2 -4 64 5 148. 907. 1361. <
6226 1 4 64 -5 148. 907. 1361. <
6227 2 2 64 -5 30. -454. 907. <
6227 1 -2 64 5 30. -454. 907. <
6228 2 -2 64 5 30. 454. 1361. <
6228 1 2 64 -5 30. 454. 1361. <
6229 2 0 64 -5 868. 2722. 906. o
6229 1 0 64 5 868. 2722. 906. o
6230 2 0 64 5 868. 0. 1361. <
6230 1 0 64 -5 868. 0. 1361. <
6231 2 -2 64 -5 30. 0. 907. <
6231 1 2 64 5 30. 0. 907. <
6232 2 2 64 5 30. -454. 907. <
6232 1 -2 64 -5 30. -454. 907. <
6233 2 -4 64 -5 148. 454. 1361. <
6233 1 4 64 5 148. 454. 1361. <
6234 2 4 64 5 146. 454. 1361. <
6234 1 -4 64 -5 146. 454. 1361. <
6235 3 -5 -65 5 100. 2268. 1360. <
6235 2 5 65 -5 100. 2268. 1360. <
6235 1 -5 65 5 100. 2268. 1360. <
6236 3 5 -65 -5 100. 907. 2268. <
6236 2 -5 65 5 100. 907. 2268. <
6236 1 5 65 -5 100. 907. 2268. <
6237 3 -5 -65 3 66. -454. 907. <
6237 2 3 65 -5 66. -454. 907. <
6237 1 -3 65 5 66. -454. 907. <
6238 3 5 -65 -3 66. 1815. 1361. <
6238 2 -3 65 5 66. 1815. 1361. <
6238 1 3 65 -5 66. 1815. 1361. <
6239 3 -5 -65 1 131. 907. 907. <
6239 2 1 65 -5 131. 907. 907. <
6239 1 -1 65 5 131. 907. 907. <
6240 3 5 -65 -1 131. 0. 1361. <
6240 2 -1 65 5 131. 0. 1361. <
6240 1 1 65 -5 131. 0. 1361. <
6241 3 -5 -65 -1 132. 1815. 907. <
6241 2 -1 65 -5 132. 1815. 907. <
6241 1 1 65 5 132. 1815. 907. <
6242 3 5 -65 1 130. -907. 1361. <
6242 2 1 65 5 130. -907. 1361. <
6242 1 -1 65 -5 130. -907. 1361. <
6243 3 -5 -65 -3 66. 454. 907. <
6243 2 -3 65 -5 66. 454. 907. <
6243 1 3 65 5 66. 454. 907. <
6244 3 5 -65 3 66. -907. 1361. <
6244 2 3 65 5 66. -907. 1361. <
6244 1 -3 65 -5 66. -907. 1361. <
6245 3 -5 -65 -5 100. 2722. 1814. <
6245 2 -5 65 -5 100. 2722. 1814. <
6245 1 5 65 5 100. 2722. 1814. <
6246 3 5 -65 5 100. 0. 1361. <
6246 2 5 65 5 100. 0. 1361. <
6246 1 -5 65 -5 100. 0. 1361. <
6247 2 4 66 -5 915. 1815. 907. <
6247 1 -4 66 5 915. 1815. 907. <
6248 2 -4 66 5 912. -2722. 2268. <
6248 1 4 66 -5 912. -2722. 2268. <
6249 2 2 66 -5 150. 1815. 907. <
6249 1 -2 66 5 150. 1815. 907. <
6250 2 -2 66 5 149. 2268. 1814. <
6250 1 2 66 -5 149. 2268. 1814. <
6251 2 0 66 -5 2993. 2722. 908. o
6251 1 0 66 5 2993. 2722. 908. o
6252 2 0 66 5 2993. 5444. 1359. o
6252 1 0 66 -5 2993. 5444. 1359. o
6253 2 -2 66 -5 149. 1361. 907. <
6253 1 2 66 5 149. 1361. 907. <
6254 2 2 66 5 150. 2722. 1360. <
6254 1 -2 66 -5 150. 2722. 1360. <
6255 2 -4 66 -5 912. 1361. 1815. <
6255 1 4 66 5 912. 1361. 1815. <
6256 2 4 66 5 915. 2268. 1360. <
6256 1 -4 66 -5 915. 2268. 1360. <
6257 3 -5 -67 5 176. 0. 1361. <
6257 2 5 67 -5 176. 0. 1361. <
6257 1 -5 67 5 176. 0. 1361. <
6258 3 5 -67 -5 177. 907. 2722. <
6258 2 -5 67 5 177. 907. 2722. <
6258 1 5 67 -5 177. 907. 2722. <
6259 3 -5 -67 3 411. 1815. 907. <
6259 2 3 67 -5 411. 1815. 907. <
6259 1 -3 67 5 411. 1815. 907. <
6260 3 5 -67 -3 416. -2268. 1814. <
6260 2 -3 67 5 416. -2268. 1814. <
6260 1 3 67 -5 416. -2268. 1814. <
6261 3 -5 -67 1 897. 907. 907. <
6261 2 1 67 -5 897. 907. 907. <
6261 1 -1 67 5 897. 907. 907. <
6262 3 5 -67 -1 896. 0. 1361. <
6262 2 -1 67 5 896. 0. 1361. <
6262 1 1 67 -5 896. 0. 1361. <
6263 3 -5 -67 -1 895. 1815. 907. <
6263 2 -1 67 -5 895. 1815. 907. <
6263 1 1 67 5 895. 1815. 907. <
6264 3 5 -67 1 898. 1361. 1361. <
6264 2 1 67 5 898. 1361. 1361. <
6264 1 -1 67 -5 898. 1361. 1361. <
6265 3 -5 -67 -3 415. 2268. 906. o
6265 2 -3 67 -5 415. 2268. 906. o
6265 1 3 67 5 415. 2268. 906. o
6266 3 5 -67 3 412. 454. 1361. <
6266 2 3 67 5 412. 454. 1361. <
6266 1 -3 67 -5 412. 454. 1361. <
6267 3 -5 -67 -5 177. 1361. 1814. <
6267 2 -5 67 -5 177. 1361. 1814. <
6267 1 5 67 5 177. 1361. 1814. <
6268 3 5 -67 5 177. 454. 1361. <
6268 2 5 67 5 177. 454. 1361. <
6268 1 -5 67 -5 177. 454. 1361. <
6269 2 4 68 -5 1472. -1815. 1360. <
6269 1 -4 68 5 1472. -1815. 1360. <
6270 2 -4 68 5 1475. 2268. 2722. <
6270 1 4 68 -5 1475. 2268. 2722. <
6271 2 2 68 -5 1344. 454. 908. <
6271 1 -2 68 5 1344. 454. 908. <
6272 2 -2 68 5 1346. 454. 1815. <
6272 1 2 68 -5 1346. 454. 1815. <
6273 2 0 68 -5 8570. 6805. 911. o
6273 1 0 68 5 8570. 6805. 911. o
6274 2 0 68 5 8570. 11341. 1355. o
6274 1 0 68 -5 8570. 11341. 1355. o
6275 2 -2 68 -5 1346. 454. 908. <
6275 1 2 68 5 1346. 454. 908. <
6276 2 2 68 5 1344. 2722. 906. o
6276 1 -2 68 -5 1344. 2722. 906. o
6277 2 -4 68 -5 1475. 0. 1815. <
6277 1 4 68 5 1475. 0. 1815. <
6278 2 4 68 5 1472. 1815. 1361. <
6278 1 -4 68 -5 1472. 1815. 1361. <
6279 3 -5 -69 5 530. 454. 1361. <
6279 2 5 69 -5 530. 454. 1361. <
6279 1 -5 69 5 530. 454. 1361. <
6280 3 5 -69 -5 531. 907. 3176. <
6280 2 -5 69 5 531. 907. 3176. <
6280 1 5 69 -5 531. 907. 3176. <
6281 3 -5 -69 3 1269. 1815. 907. <
6281 2 3 69 -5 1269. 1815. 907. <
6281 1 -3 69 5 1269. 1815. 907. <
6282 3 5 -69 -3 1269. -454. 2268. <
6282 2 -3 69 5 1269. -454. 2268. <
6282 1 3 69 -5 1269. -454. 2268. <
6283 3 -5 -69 1 2314. 2268. 907. o
6283 2 1 69 -5 2314. 2268. 907. o
6283 1 -1 69 5 2314. 2268. 907. o
6284 3 5 -69 -1 2314. 0. 1815. <
6284 2 -1 69 5 2314. 0. 1815. <
6284 1 1 69 -5 2314. 0. 1815. <
6285 3 -5 -69 -1 2317. 1815. 908. <
6285 2 -1 69 -5 2317. 1815. 908. <
6285 1 1 69 5 2317. 1815. 908. <
6286 3 5 -69 1 2311. 4083. 1360. o
6286 2 1 69 5 2311. 4083. 1360. o
6286 1 -1 69 -5 2311. 4083. 1360. o
6287 3 -5 -69 -3 1270. 907. 907. <
6287 2 -3 69 -5 1270. 907. 907. <
6287 1 3 69 5 1270. 907. 907. <
6288 3 5 -69 3 1268. 1361. 1361. <
6288 2 3 69 5 1268. 1361. 1361. <
6288 1 -3 69 -5 1268. 1361. 1361. <
6289 3 -5 -69 -5 530. 4083. 2267. <
6289 2 -5 69 -5 530. 4083. 2267. <
6289 1 5 69 5 530. 4083. 2267. <
6290 3 5 -69 5 530. 907. 1361. <
6290 2 5 69 5 530. 907. 1361. <
6290 1 -5 69 -5 530. 907. 1361. <
6291 2 4 70 -5 56. 907. 907. <
6291 1 -4 70 5 56. 907. 907. <
6292 2 -4 70 5 57. 1361. 2722. <
6292 1 4 70 -5 57. 1361. 2722. <
6293 2 2 70 -5 23. 907. 907. <
6293 1 -2 70 5 23. 907. 907. <
6294 2 -2 70 5 23. -454. 1815. <
6294 1 2 70 -5 23. -454. 1815. <
6295 2 0 70 -5 208. 907. 907. <
6295 1 0 70 5 208. 907. 907. <
6296 2 0 70 5 208. -454. 1361. <
6296 1 0 70 -5 208. -454. 1361. <
6297 2 -2 70 -5 23. 0. 907. <
6297 1 2 70 5 23. 0. 907. <
6298 2 2 70 5 23. 454. 907. <
6298 1 -2 70 -5 23. 454. 907. <
6299 2 -4 70 -5 57. 0. 1361. <
6299 1 4 70 5 57. 0. 1361. <
6300 2 4 70 5 56. 0. 1361. <
6300 1 -4 70 -5 56. 0. 1361. <
6301 3 -5 -71 3 1893. 2268. 907. o
6301 2 3 71 -5 1893. 2268. 907. o
6301 1 -3 71 5 1893. 2268. 907. o
6302 3 5 -71 -3 1901. -454. 2268. <
6302 2 -3 71 5 1901. -454. 2268. <
6302 1 3 71 -5 1901. -454. 2268. <
6303 3 -5 -71 1 2976. 2268. 908. o
6303 2 1 71 -5 2976. 2268. 908. o
6303 1 -1 71 5 2976. 2268. 908. o
6304 3 5 -71 -1 2977. 5444. 1813. o
6304 2 -1 71 5 2977. 5444. 1813. o
6304 1 1 71 -5 2977. 5444. 1813. o
6305 3 -5 -71 -1 2981. 2722. 908. o
6305 2 -1 71 -5 2981. 2722. 908. o
6305 1 1 71 5 2981. 2722. 908. o
6306 3 5 -71 1 2973. 2268. 1361. <
6306 2 1 71 5 2973. 2268. 1361. <
6306 1 -1 71 -5 2973. 2268. 1361. <
6307 3 -5 -71 -3 1900. 2268. 1361. <
6307 2 -3 71 -5 1900. 2268. 1361. <
6307 1 3 71 5 1900. 2268. 1361. <
6308 3 5 -71 3 1894. 907. 1361. <
6308 2 3 71 5 1894. 907. 1361. <
6308 1 -3 71 -5 1894. 907. 1361. <
6309 2 4 72 -5 14. 454. 907. <
6309 1 -4 72 5 14. 454. 907. <
6310 2 -4 72 5 13. 454. 3176. <
6310 1 4 72 -5 13. 454. 3176. <
6311 2 2 72 -5 64. 907. 907. <
6311 1 -2 72 5 64. 907. 907. <
6312 2 -2 72 5 64. -454. 1815. <
6312 1 2 72 -5 64. -454. 1815. <
6313 2 0 72 -5 79. 907. 907. <
6313 1 0 72 5 79. 907. 907. <
6314 2 0 72 5 79. 1361. 1814. <
6314 1 0 72 -5 79. 1361. 1814. <
6315 2 -2 72 -5 64. 1815. 907. <
6315 1 2 72 5 64. 1815. 907. <
6316 2 2 72 5 64. 0. 1361. <
6316 1 -2 72 -5 64. 0. 1361. <
6317 2 -4 72 -5 13. 0. 1815. <
6317 1 4 72 5 13. 0. 1815. <
6318 2 4 72 5 14. 1815. 1361. <
6318 1 -4 72 -5 14. 1815. 1361. <
6319 3 -5 -73 3 10632. 13156. 1355. o
6319 2 3 73 -5 10632. 13156. 1355. o
6319 1 -3 73 5 10632. 13156. 1355. o
6320 3 5 -73 -3 10661. 16785. 2713. o
6320 2 -3 73 5 10661. 16785. 2713. o
6320 1 3 73 -5 10661. 16785. 2713. o
6321 3 -5 -73 1 16979. 13156. 1372. o
6321 2 1 73 -5 16979. 13156. 1372. o
6321 1 -1 73 5 16979. 13156. 1372. o
6322 3 5 -73 -1 17008. 20868. 2259. o
6322 2 -1 73 5 17008. 20868. 2259. o
6322 1 1 73 -5 17008. 20868. 2259. o
6323 3 -5 -73 -1 16990. 13610. 1371. o
6323 2 -1 73 -5 16990. 13610. 1371. o
6323 1 1 73 5 16990. 13610. 1371. o
6324 3 5 -73 1 16997. 21322. 1802. o
6324 2 1 73 5 16997. 21322. 1802. o
6324 1 -1 73 -5 16997. 21322. 1802. o
6325 3 -5 -73 -3 10648. 4537. 1821. o
6325 2 -3 73 -5 10648. 4537. 1821. o
6325 1 3 73 5 10648. 4537. 1821. o
6326 3 5 -73 3 10645. 17239. 1800. o
6326 2 3 73 5 10645. 17239. 1800. o
6326 1 -3 73 -5 10645. 17239. 1800. o
6327 2 4 74 -5 4. 1361. 1361. <
6327 1 -4 74 5 4. 1361. 1361. <
6328 2 -4 74 5 4. 1815. 3175. <
6328 1 4 74 -5 4. 1815. 3175. <
6329 2 2 74 -5 34. 907. 907. <
6329 1 -2 74 5 34. 907. 907. <
6330 2 -2 74 5 34. 1361. 1814. <
6330 1 2 74 -5 34. 1361. 1814. <
6331 2 0 74 -5 20. 1815. 907. <
6331 1 0 74 5 20. 1815. 907. <
6332 2 0 74 5 20. 1361. 1361. <
6332 1 0 74 -5 20. 1361. 1361. <
6333 2 -2 74 -5 34. -907. 907. <
6333 1 2 74 5 34. -907. 907. <
6334 2 2 74 5 34. 2722. 1360. <
6334 1 -2 74 -5 34. 2722. 1360. <
6335 2 -4 74 -5 4. 1361. 1814. <
6335 1 4 74 5 4. 1361. 1814. <
6336 2 4 74 5 4. 0. 1361. <
6336 1 -4 74 -5 4. 0. 1361. <
6337 3 -5 -75 3 560. 1361. 1361. <
6337 2 3 75 -5 560. 1361. 1361. <
6337 1 -3 75 5 560. 1361. 1361. <
6338 3 5 -75 -3 569. -1815. 2722. <
6338 2 -3 75 5 569. -1815. 2722. <
6338 1 3 75 -5 569. -1815. 2722. <
6339 3 -5 -75 1 741. 0. 907. <
6339 2 1 75 -5 741. 0. 907. <
6339 1 -1 75 5 741. 0. 907. <
6340 3 5 -75 -1 753. 2722. 1814. <
6340 2 -1 75 5 753. 2722. 1814. <
6340 1 1 75 -5 753. 2722. 1814. <
6341 3 -5 -75 -1 744. 454. 1361. <
6341 2 -1 75 -5 744. 454. 1361. <
6341 1 1 75 5 744. 454. 1361. <
6342 3 5 -75 1 750. 907. 1361. <
6342 2 1 75 5 750. 907. 1361. <
6342 1 -1 75 -5 750. 907. 1361. <
6343 3 -5 -75 -3 563. 907. 1815. <
6343 2 -3 75 -5 563. 907. 1815. <
6343 1 3 75 5 563. 907. 1815. <
6344 3 5 -75 3 565. 2722. 1360. <
6344 2 3 75 5 565. 2722. 1360. <
6344 1 -3 75 -5 565. 2722. 1360. <
6345 2 2 76 -5 55. 454. 907. <
6345 1 -2 76 5 55. 454. 907. <
6346 2 -2 76 5 55. -454. 2268. <
6346 1 2 76 -5 55. -454. 2268. <
6347 2 0 76 -5 7. 1361. 907. <
6347 1 0 76 5 7. 1361. 907. <
6348 2 0 76 5 7. -1361. 1361. <
6348 1 0 76 -5 7. -1361. 1361. <
6349 2 -2 76 -5 55. 2268. 1360. <
6349 1 2 76 5 55. 2268. 1360. <
6350 2 2 76 5 55. 1361. 1361. <
6350 1 -2 76 -5 55. 1361. 1361. <
6351 3 -5 -77 3 31. 1815. 1361. <
6351 2 3 77 -5 31. 1815. 1361. <
6351 1 -3 77 5 31. 1815. 1361. <
6352 3 5 -77 -3 31. -2268. 2268. <
6352 2 -3 77 5 31. -2268. 2268. <
6352 1 3 77 -5 31. -2268. 2268. <
6353 3 -5 -77 1 61. 907. 1361. <
6353 2 1 77 -5 61. 907. 1361. <
6353 1 -1 77 5 61. 907. 1361. <
6354 3 5 -77 -1 61. 1361. 1814. <
6354 2 -1 77 5 61. 1361. 1814. <
6354 1 1 77 -5 61. 1361. 1814. <
6355 3 -5 -77 -1 61. 454. 1361. <
6355 2 -1 77 -5 61. 454. 1361. <
6355 1 1 77 5 61. 454. 1361. <
6356 3 5 -77 1 61. 454. 1815. <
6356 2 1 77 5 61. 454. 1815. <
6356 1 -1 77 -5 61. 454. 1815. <
6357 3 -5 -77 -3 31. 0. 1815. <
6357 2 -3 77 -5 31. 0. 1815. <
6357 1 3 77 5 31. 0. 1815. <
6358 3 5 -77 3 31. -454. 1361. <
6358 2 3 77 5 31. -454. 1361. <
6358 1 -3 77 -5 31. -454. 1361. <
6359 2 2 78 -5 148. 1815. 1361. <
6359 1 -2 78 5 148. 1815. 1361. <
6360 2 -2 78 5 148. -907. 1815. <
6360 1 2 78 -5 148. -907. 1815. <
6361 2 0 78 -5 17. 1815. 1361. <
6361 1 0 78 5 17. 1815. 1361. <
6362 2 0 78 5 17. 1361. 1814. <
6362 1 0 78 -5 17. 1361. 1814. <
6363 2 -2 78 -5 148. 454. 1361. <
6363 1 2 78 5 148. 454. 1361. <
6364 2 2 78 5 148. 907. 1361. <
6364 1 -2 78 -5 148. 907. 1361. <
6365 3 -5 -79 1 113. 454. 1361. <
6365 2 1 79 -5 113. 454. 1361. <
6365 1 -1 79 5 113. 454. 1361. <
6366 3 5 -79 -1 111. 907. 1815. <
6366 2 -1 79 5 111. 907. 1815. <
6366 1 1 79 -5 111. 907. 1815. <
6367 3 -5 -79 -1 112. 2722. 1360. <
6367 2 -1 79 -5 112. 2722. 1360. <
6367 1 1 79 5 112. 2722. 1360. <
6368 3 5 -79 1 113. 0. 1815. <
6368 2 1 79 5 113. 0. 1815. <
6368 1 -1 79 -5 113. 0. 1815. <
6369 2 0 80 -5 1523. 907. 1361. <
6369 1 0 80 5 1523. 907. 1361. <
6370 2 0 80 5 1523. 3176. 1814. <
6370 1 0 80 -5 1523. 3176. 1814. <
6371 3 -5 -81 1 302. 2268. 1360. <
6371 2 1 81 -5 302. 2268. 1360. <
6371 1 -1 81 5 302. 2268. 1360. <
6372 3 5 -81 -1 303. 907. 1815. <
6372 2 -1 81 5 303. 907. 1815. <
6372 1 1 81 -5 303. 907. 1815. <
6373 3 -5 -81 -1 302. 454. 1361. <
6373 2 -1 81 -5 302. 454. 1361. <
6373 1 1 81 5 302. 454. 1361. <
6374 3 5 -81 1 303. 454. 1815. <
6374 2 1 81 5 303. 454. 1815. <
6374 1 -1 81 -5 303. 454. 1815. <
6375 3 -6 0 8 2624. 454. 1361. <
6375 2 8 0 -6 2624. 454. 1361. <
6375 1 -8 0 6 2624. 454. 1361. <
6376 3 6 0 -4 12987. 9980. 917. o
6376 2 -4 0 6 12987. 9980. 917. o
6376 1 4 0 -6 12987. 9980. 917. o
6377 3 -6 0 2 1439830. 1538800. 29738. o
6377 2 2 0 -6 1439830. 1538800. 29738. o
6377 1 -2 0 6 1439830. 1538800. 29738. o
6378 3 6 0 -2 1438440. 1580990. 29998. o
6378 2 -2 0 6 1438440. 1580990. 29998. o
6378 1 2 0 -6 1438440. 1580990. 29998. o
6379 3 -6 0 0 10108. 12249. 900. o
6379 2 0 0 -6 10108. 12249. 900. o
6379 1 0 0 6 10108. 12249. 900. o
6380 3 -6 0 -2 1438890. 1444440. 3522. o
6380 2 -2 0 -6 1438890. 1444440. 3522. o
6380 1 2 0 6 1438890. 1444440. 3522. o
6381 3 6 0 2 1439380. 1572820. 29957. o
6381 2 2 0 6 1439380. 1572820. 29957. o
6381 1 -2 0 -6 1439380. 1572820. 29957. o
6382 3 -6 0 -4 12117. 8166. 918. o
6382 2 -4 0 -6 12117. 8166. 918. o
6382 1 4 0 6 12117. 8166. 918. o
6383 3 -6 0 -8 2861. 2722. 907. o
6383 2 -8 0 -6 2861. 2722. 907. o
6383 1 8 0 6 2861. 2722. 907. o
6384 2 7 1 -6 101. -454. 454. <
6384 1 -7 1 6 101. -454. 454. <
6385 2 -7 1 6 100. 454. 907. <
6385 1 7 1 -6 100. 454. 907. <
6386 2 5 1 -6 352. 454. 454. <
6386 1 -5 1 6 352. 454. 454. <
6387 2 -5 1 6 354. 907. 907. <
6387 1 5 1 -6 354. 907. 907. <
6388 2 1 1 -6 2441. 3629. 451. o
6388 1 -1 1 6 2441. 3629. 451. o
6389 2 -1 1 6 2442. 1815. 454. o
6389 1 1 1 -6 2442. 1815. 454. o
6390 2 -1 1 -6 2442. 2268. 454. o
6390 1 1 1 6 2442. 2268. 454. o
6391 2 -3 1 -6 578. 0. 454. <
6391 1 3 1 6 578. 0. 454. <
6392 2 -5 1 -6 354. 454. 454. <
6392 1 5 1 6 354. 454. 454. <
6393 2 5 1 6 352. 454. 907. <
6393 1 -5 1 -6 352. 454. 907. <
6394 2 -7 1 -6 100. -454. 454. <
6394 1 7 1 6 100. -454. 454. <
6395 2 7 1 6 101. 454. 907. <
6395 1 -7 1 -6 101. 454. 907. <
6396 3 -6 -2 8 664. 2722. 906. o
6396 2 8 2 -6 664. 2722. 906. o
6396 1 -8 2 6 664. 2722. 906. o
6397 3 6 -2 -8 760. 907. 907. <
6397 2 -8 2 6 760. 907. 907. <
6397 1 8 2 -6 760. 907. 907. <
6398 3 -6 -2 6 29984. 4083. 1862. o
6398 2 6 2 -6 29984. 4083. 1862. o
6398 1 -6 2 6 29984. 4083. 1862. o
6399 3 6 -2 -6 29867. 44005. 1247. o
6399 2 -6 2 6 29867. 44005. 1247. o
6399 1 6 2 -6 29867. 44005. 1247. o
6400 3 6 -2 -4 3559. 2722. 908. o
6400 2 -4 2 6 3559. 2722. 908. o
6400 1 4 2 -6 3559. 2722. 908. o
6401 3 6 -2 -2 96674. 126570. 2530. o
6401 2 -2 2 6 96674. 126570. 2530. o
6401 1 2 2 -6 96674. 126570. 2530. o
6402 3 -6 -2 0 10596. 13156. 435. o
6402 2 0 2 -6 10596. 13156. 435. o
6402 1 0 2 6 10596. 13156. 435. o
6403 3 6 -2 0 10827. 13610. 897. o
6403 2 0 2 6 10827. 13610. 897. o
6403 1 0 2 -6 10827. 13610. 897. o
6404 3 -6 -2 -2 96764. 200062. 3190. o
6404 2 -2 2 -6 96764. 200062. 3190. o
6404 1 2 2 6 96764. 200062. 3190. o
6405 3 -6 -2 -4 3397. 2268. 908. o
6405 2 -4 2 -6 3397. 2268. 908. o
6405 1 4 2 6 3397. 2268. 908. o
6406 3 6 -2 4 3353. 1361. 908. <
6406 2 4 2 6 3353. 1361. 908. <
6406 1 -4 2 -6 3353. 1361. 908. <
6407 3 -6 -2 -6 29922. 49902. 1683. o
6407 2 -6 2 -6 29922. 49902. 1683. o
6407 1 6 2 6 29922. 49902. 1683. o
6408 3 -6 -2 -8 715. 454. 454. <
6408 2 -8 2 -6 715. 454. 454. <
6408 1 8 2 6 715. 454. 454. <
6409 2 7 3 -6 267. -454. 454. <
6409 1 -7 3 6 267. -454. 454. <
6410 2 -7 3 6 269. 907. 907. <
6410 1 7 3 -6 269. 907. 907. <
6411 2 5 3 -6 386. 907. 453. <
6411 1 -5 3 6 386. 907. 453. <
6412 2 -3 3 6 1101. 907. 454. <
6412 1 3 3 -6 1101. 907. 454. <
6413 2 1 3 -6 3905. 4537. 452. o
6413 1 -1 3 6 3905. 4537. 452. o
6414 2 -1 3 6 3901. 4083. 453. o
6414 1 1 3 -6 3901. 4083. 453. o
6415 2 -1 3 -6 3901. 3629. 454. o
6415 1 1 3 6 3901. 3629. 454. o
6416 2 1 3 6 3905. 4083. 453. o
6416 1 -1 3 -6 3905. 4083. 453. o
6417 2 -3 3 -6 1101. 1815. 453. o
6417 1 3 3 6 1101. 1815. 453. o
6418 2 -5 3 -6 382. 454. 907. <
6418 1 5 3 6 382. 454. 907. <
6419 2 5 3 6 386. 454. 907. <
6419 1 -5 3 -6 386. 454. 907. <
6420 2 -7 3 -6 269. 454. 454. <
6420 1 7 3 6 269. 454. 454. <
6421 2 7 3 6 267. 1815. 907. <
6421 1 -7 3 -6 267. 1815. 907. <
6422 3 -6 -4 8 101. 454. 907. <
6422 2 8 4 -6 101. 454. 907. <
6422 1 -8 4 6 101. 454. 907. <
6423 3 6 -4 -8 115. 907. 453. <
6423 2 -8 4 6 115. 907. 453. <
6423 1 8 4 -6 115. 907. 453. <
6424 3 -6 -4 6 12099. 9073. 1367. o
6424 2 6 4 -6 12099. 9073. 1367. o
6424 1 -6 4 6 12099. 9073. 1367. o
6425 3 6 -4 -6 12090. 24044. 1313. o
6425 2 -6 4 6 12090. 24044. 1313. o
6425 1 6 4 -6 12090. 24044. 1313. o
6426 3 6 -4 -2 69740. 77575. 714. o
6426 2 -2 4 6 69740. 77575. 714. o
6426 1 2 4 -6 69740. 77575. 714. o
6427 3 -6 -4 0 958. 907. 454. <
6427 2 0 4 -6 958. 907. 454. <
6427 1 0 4 6 958. 907. 454. <
6428 3 6 -4 0 870. 2268. 452. o
6428 2 0 4 6 870. 2268. 452. o
6428 1 0 4 -6 870. 2268. 452. o
6429 3 -6 -4 -2 69651. 85741. 1078. o
6429 2 -2 4 -6 69651. 85741. 1078. o
6429 1 2 4 6 69651. 85741. 1078. o
6430 3 -6 -4 -4 292. 1361. 907. <
6430 2 -4 4 -6 292. 1361. 907. <
6430 1 4 4 6 292. 1361. 907. <
6431 3 6 -4 6 12095. 10888. 1817. o
6431 2 6 4 6 12095. 10888. 1817. o
6431 1 -6 4 -6 12095. 10888. 1817. o
6432 3 -6 -4 -8 102. 454. 454. <
6432 2 -8 4 -6 102. 454. 454. <
6432 1 8 4 6 102. 454. 454. <
6433 2 7 5 -6 15. 454. 454. <
6433 1 -7 5 6 15. 454. 454. <
6434 2 -7 5 6 16. 454. 907. <
6434 1 7 5 -6 16. 454. 907. <
6435 2 5 5 -6 2496. 1361. 908. <
6435 1 -5 5 6 2496. 1361. 908. <
6436 2 -3 5 6 4942. 6351. 449. o
6436 1 3 5 -6 4942. 6351. 449. o
6437 2 1 5 -6 21355. 20868. 910. o
6437 1 -1 5 6 21355. 20868. 910. o
6438 2 -1 5 6 21390. 22229. 443. o
6438 1 1 5 -6 21390. 22229. 443. o
6439 2 -1 5 -6 21390. 22683. 899. o
6439 1 1 5 6 21390. 22683. 899. o
6440 2 1 5 6 21355. 22683. 436. o
6440 1 -1 5 -6 21355. 22683. 436. o
6441 2 -3 5 -6 4942. 5444. 907. o
6441 1 3 5 6 4942. 5444. 907. o
6442 2 -5 5 -6 2518. 2268. 907. o
6442 1 5 5 6 2518. 2268. 907. o
6443 2 -7 5 -6 16. 454. 454. <
6443 1 7 5 6 16. 454. 454. <
6444 2 7 5 6 15. 2268. 906. o
6444 1 -7 5 -6 15. 2268. 906. o
6445 3 -6 -6 8 307. 454. 907. <
6445 2 8 6 -6 307. 454. 907. <
6445 1 -8 6 6 307. 454. 907. <
6446 3 6 -6 -8 339. 454. 454. <
6446 2 -8 6 6 339. 454. 454. <
6446 1 8 6 -6 339. 454. 454. <
6447 3 -6 -6 6 10678. 8166. 1365. o
6447 2 6 6 -6 10678. 8166. 1365. o
6447 1 -6 6 6 10678. 8166. 1365. o
6448 3 6 -6 -6 10611. 14971. 890. o
6448 2 -6 6 6 10611. 14971. 890. o
6448 1 6 6 -6 10611. 14971. 890. o
6449 3 -6 -6 4 488. 0. 907. <
6449 2 4 6 -6 488. 0. 907. <
6449 1 -4 6 6 488. 0. 907. <
6450 3 6 -6 -4 584. 454. 907. <
6450 2 -4 6 6 584. 454. 907. <
6450 1 4 6 -6 584. 454. 907. <
6451 3 -6 -6 2 64533. 68502. 825. o
6451 2 2 6 -6 64533. 68502. 825. o
6451 1 -2 6 6 64533. 68502. 825. o
6452 3 6 -6 -2 64399. 74400. 666. o
6452 2 -2 6 6 64399. 74400. 666. o
6452 1 2 6 -6 64399. 74400. 666. o
6453 3 -6 -6 0 1073. 1815. 453. o
6453 2 0 6 -6 1073. 1815. 453. o
6453 1 0 6 6 1073. 1815. 453. o
6454 3 6 -6 0 1145. 1361. 907. <
6454 2 0 6 6 1145. 1361. 907. <
6454 1 0 6 -6 1145. 1361. 907. <
6455 3 -6 -6 -2 64467. 70317. 1280. o
6455 2 -2 6 -6 64467. 70317. 1280. o
6455 1 2 6 6 64467. 70317. 1280. o
6456 3 6 -6 2 64465. 73039. 709. o
6456 2 2 6 6 64465. 73039. 709. o
6456 1 -2 6 -6 64465. 73039. 709. o
6457 3 -6 -6 -4 537. 907. 453. <
6457 2 -4 6 -6 537. 907. 453. <
6457 1 4 6 6 537. 907. 453. <
6458 3 6 -6 4 535. -907. 907. <
6458 2 4 6 6 535. -907. 907. <
6458 1 -4 6 -6 535. -907. 907. <
6459 3 6 -6 6 10647. 9073. 1817. o
6459 2 6 6 6 10647. 9073. 1817. o
6459 1 -6 6 -6 10647. 9073. 1817. o
6460 3 -6 -6 -8 323. 454. 454. <
6460 2 -8 6 -6 323. 454. 454. <
6460 1 8 6 6 323. 454. 454. <
6461 3 6 -6 8 323. 0. 1361. <
6461 2 8 6 6 323. 0. 1361. <
6461 1 -8 6 -6 323. 0. 1361. <
6462 2 7 7 -6 260. 454. 907. <
6462 1 -7 7 6 260. 454. 907. <
6463 2 -7 7 6 263. 0. 907. <
6463 1 7 7 -6 263. 0. 907. <
6464 2 5 7 -6 5363. 4537. 908. o
6464 1 -5 7 6 5363. 4537. 908. o
6465 2 -5 7 6 5338. 4083. 909. o
6465 1 5 7 -6 5338. 4083. 909. o
6466 2 3 7 -6 9202. 9527. 906. o
6466 1 -3 7 6 9202. 9527. 906. o
6467 2 -3 7 6 9176. 7712. 461. o
6467 1 3 7 -6 9176. 7712. 461. o
6468 2 1 7 -6 41771. 39468. 934. o
6468 1 -1 7 6 41771. 39468. 934. o
6469 2 -1 7 6 41749. 39468. 934. o
6469 1 1 7 -6 41749. 39468. 934. o
6470 2 -1 7 -6 41749. 37200. 958. o
6470 1 1 7 6 41749. 37200. 958. o
6471 2 1 7 6 41771. 34024. 987. o
6471 1 -1 7 -6 41771. 34024. 987. o
6472 2 -3 7 -6 9176. 10434. 904. o
6472 1 3 7 6 9176. 10434. 904. o
6473 2 -5 7 -6 5338. 3176. 910. o
6473 1 5 7 6 5338. 3176. 910. o
6474 2 -7 7 -6 263. 907. 453. <
6474 1 7 7 6 263. 907. 453. <
6475 2 7 7 6 260. 1815. 907. <
6475 1 -7 7 -6 260. 1815. 907. <
6476 3 -6 -8 8 76. 1815. 907. <
6476 2 8 8 -6 76. 1815. 907. <
6476 1 -8 8 6 76. 1815. 907. <
6477 3 6 -8 -8 73. 0. 907. <
6477 2 -8 8 6 73. 0. 907. <
6477 1 8 8 -6 73. 0. 907. <
6478 3 -6 -8 6 8915. 9527. 1360. o
6478 2 6 8 -6 8915. 9527. 1360. o
6478 1 -6 8 6 8915. 9527. 1360. o
6479 3 6 -8 -6 8931. 12702. 895. o
6479 2 -6 8 6 8931. 12702. 895. o
6479 1 6 8 -6 8931. 12702. 895. o
6480 3 6 -8 -4 243. 454. 907. <
6480 2 -4 8 6 243. 454. 907. <
6480 1 4 8 -6 243. 454. 907. <
6481 3 6 -8 -2 34412. 41736. 1303. o
6481 2 -2 8 6 34412. 41736. 1303. o
6481 1 2 8 -6 34412. 41736. 1303. o
6482 3 -6 -8 0 567. 907. 453. <
6482 2 0 8 -6 567. 907. 453. <
6482 1 0 8 6 567. 907. 453. <
6483 3 6 -8 0 462. 0. 907. <
6483 2 0 8 6 462. 0. 907. <
6483 1 0 8 -6 462. 0. 907. <
6484 3 -6 -8 -2 34324. 42190. 811. o
6484 2 -2 8 -6 34324. 42190. 811. o
6484 1 2 8 6 34324. 42190. 811. o
6485 3 -6 -8 -4 287. 454. 907. <
6485 2 -4 8 -6 287. 454. 907. <
6485 1 4 8 6 287. 454. 907. <
6486 3 6 -8 4 247. 454. 454. <
6486 2 4 8 6 247. 454. 454. <
6486 1 -4 8 -6 247. 454. 454. <
6487 3 6 -8 6 8922. 4990. 1366. o
6487 2 6 8 6 8922. 4990. 1366. o
6487 1 -6 8 -6 8922. 4990. 1366. o
6488 3 -6 -8 -8 69. 454. 454. <
6488 2 -8 8 -6 69. 454. 454. <
6488 1 8 8 6 69. 454. 454. <
6489 3 6 -8 8 79. 1361. 1814. <
6489 2 8 8 6 79. 1361. 1814. <
6489 1 -8 8 -6 79. 1361. 1814. <
6490 2 7 9 -6 262. 454. 907. <
6490 1 -7 9 6 262. 454. 907. <
6491 2 -7 9 6 263. 0. 907. <
6491 1 7 9 -6 263. 0. 907. <
6492 2 5 9 -6 72. -454. 907. <
6492 1 -5 9 6 72. -454. 907. <
6493 2 -5 9 6 73. 0. 907. <
6493 1 5 9 -6 73. 0. 907. <
6494 2 3 9 -6 394. 1361. 907. <
6494 1 -3 9 6 394. 1361. 907. <
6495 2 -3 9 6 394. 907. 453. <
6495 1 3 9 -6 394. 907. 453. <
6496 2 1 9 -6 3889. 4990. 451. o
6496 1 -1 9 6 3889. 4990. 451. o
6497 2 -1 9 6 3897. 4083. 907. o
6497 1 1 9 -6 3897. 4083. 907. o
6498 2 -1 9 -6 3897. 4537. 452. o
6498 1 1 9 6 3897. 4537. 452. o
6499 2 1 9 6 3889. 4537. 906. o
6499 1 -1 9 -6 3889. 4537. 906. o
6500 2 -3 9 -6 394. 907. 907. <
6500 1 3 9 6 394. 907. 907. <
6501 2 3 9 6 394. 1361. 907. <
6501 1 -3 9 -6 394. 1361. 907. <
6502 2 -5 9 -6 73. 454. 907. <
6502 1 5 9 6 73. 454. 907. <
6503 2 5 9 6 72. 1361. 907. <
6503 1 -5 9 -6 72. 1361. 907. <
6504 2 -7 9 -6 263. 907. 453. <
6504 1 7 9 6 263. 907. 453. <
6505 2 7 9 6 262. 907. 907. <
6505 1 -7 9 -6 262. 907. 907. <
6506 3 -6 -10 8 280. -454. 907. <
6506 2 8 10 -6 280. -454. 907. <
6506 1 -8 10 6 280. -454. 907. <
6507 3 6 -10 -8 322. 907. 907. <
6507 2 -8 10 6 322. 907. 907. <
6507 1 8 10 -6 322. 907. 907. <
6508 3 -6 -10 6 18239. 12702. 1826. o
6508 2 6 10 -6 18239. 12702. 1826. o
6508 1 -6 10 6 18239. 12702. 1826. o
6509 3 6 -10 -6 18111. 27219. 1317. o
6509 2 -6 10 6 18111. 27219. 1317. o
6509 1 6 10 -6 18111. 27219. 1317. o
6510 3 6 -10 -4 846. 1815. 907. <
6510 2 -4 10 6 846. 1815. 907. <
6510 1 4 10 -6 846. 1815. 907. <
6511 3 6 -10 -2 17916. 79390. 1167. o
6511 2 -2 10 6 17916. 79390. 1167. o
6511 1 2 10 -6 17916. 79390. 1167. o
6512 3 -6 -10 0 296. 0. 907. <
6512 2 0 10 -6 296. 0. 907. <
6512 1 0 10 6 296. 0. 907. <
6513 3 6 -10 0 375. 1815. 453. o
6513 2 0 10 6 375. 1815. 453. o
6513 1 0 10 -6 375. 1815. 453. o
6514 3 -6 -10 -2 18048. 92546. 1248. o
6514 2 -2 10 -6 18048. 92546. 1248. o
6514 1 2 10 6 18048. 92546. 1248. o
6515 3 -6 -10 -4 804. 1361. 907. <
6515 2 -4 10 -6 804. 1361. 907. <
6515 1 4 10 6 804. 1361. 907. <
6516 3 6 -10 4 862. -1361. 907. <
6516 2 4 10 6 862. -1361. 907. <
6516 1 -4 10 -6 862. -1361. 907. <
6517 3 -6 -10 -6 18171. 45819. 1659. o
6517 2 -6 10 -6 18171. 45819. 1659. o
6517 1 6 10 6 18171. 45819. 1659. o
6518 3 -6 -10 -8 307. 907. 453. <
6518 2 -8 10 -6 307. 907. 453. <
6518 1 8 10 6 307. 907. 453. <
6519 3 6 -10 8 296. 907. 1361. <
6519 2 8 10 6 296. 907. 1361. <
6519 1 -8 10 -6 296. 907. 1361. <
6520 2 7 11 -6 214. 0. 454. <
6520 1 -7 11 6 214. 0. 454. <
6521 2 -7 11 6 213. -907. 453. <
6521 1 7 11 -6 213. -907. 453. <
6522 2 5 11 -6 935. -454. 454. <
6522 1 -5 11 6 935. -454. 454. <
6523 2 -5 11 6 939. 907. 907. <
6523 1 5 11 -6 939. 907. 907. <
6524 2 3 11 -6 490. -454. 907. <
6524 1 -3 11 6 490. -454. 907. <
6525 2 -3 11 6 487. 454. 907. <
6525 1 3 11 -6 487. 454. 907. <
6526 2 1 11 -6 1306. 0. 454. <
6526 1 -1 11 6 1306. 0. 454. <
6527 2 -1 11 6 1317. 907. 454. <
6527 1 1 11 -6 1317. 907. 454. <
6528 2 -1 11 -6 1317. 1361. 907. <
6528 1 1 11 6 1317. 1361. 907. <
6529 2 1 11 6 1306. 1815. 907. <
6529 1 -1 11 -6 1306. 1815. 907. <
6530 2 -3 11 -6 486. 907. 907. <
6530 1 3 11 6 486. 907. 907. <
6531 2 3 11 6 490. 2268. 906. o
6531 1 -3 11 -6 490. 2268. 906. o
6532 2 -5 11 -6 939. 454. 454. <
6532 1 5 11 6 939. 454. 454. <
6533 2 5 11 6 935. 0. 907. <
6533 1 -5 11 -6 935. 0. 907. <
6534 2 -7 11 -6 213. 907. 907. <
6534 1 7 11 6 213. 907. 907. <
6535 2 7 11 6 214. 2268. 906. o
6535 1 -7 11 -6 214. 2268. 906. o
6536 3 -6 -12 8 2290. 2268. 907. o
6536 2 8 12 -6 2290. 2268. 907. o
6536 1 -8 12 6 2290. 2268. 907. o
6537 3 6 -12 -8 2738. 1815. 908. <
6537 2 -8 12 6 2738. 1815. 908. <
6537 1 8 12 -6 2738. 1815. 908. <
6538 3 6 -12 -6 226083. 287618. 5633. o
6538 2 -6 12 6 226083. 287618. 5633. o
6538 1 6 12 -6 226083. 287618. 5633. o
6539 3 6 -12 -4 15622. 16785. 902. o
6539 2 -4 12 6 15622. 16785. 902. o
6539 1 4 12 -6 15622. 16785. 902. o
6540 3 -6 -12 2 1288230. 1321950. 26308. o
6540 2 2 12 -6 1288230. 1321950. 26308. o
6540 1 -2 12 6 1288230. 1321950. 26308. o
6541 3 6 -12 -2 1286420. 1410870. 26697. o
6541 2 -2 12 6 1286420. 1410870. 26697. o
6541 1 2 12 -6 1286420. 1410870. 26697. o
6542 3 -6 -12 0 41007. 44005. 869. o
6542 2 0 12 -6 41007. 44005. 869. o
6542 1 0 12 6 41007. 44005. 869. o
6543 3 6 -12 0 41257. 49448. 787. o
6543 2 0 12 6 41257. 49448. 787. o
6543 1 0 12 -6 41257. 49448. 787. o
6544 3 -6 -12 -2 1287290. 1330120. 26283. o
6544 2 -2 12 -6 1287290. 1330120. 26283. o
6544 1 2 12 6 1287290. 1330120. 26283. o
6545 3 6 -12 2 1287360. 1343730. 26440. o
6545 2 2 12 6 1287360. 1343730. 26440. o
6545 1 -2 12 -6 1287360. 1343730. 26440. o
6546 3 -6 -12 -4 15176. 15878. 904. o
6546 2 -4 12 -6 15176. 15878. 904. o
6546 1 4 12 6 15176. 15878. 904. o
6547 3 -6 -12 -6 226591. 259037. 1765. o
6547 2 -6 12 -6 226591. 259037. 1765. o
6547 1 6 12 6 226591. 259037. 1765. o
6548 3 -6 -12 -8 2470. 454. 908. <
6548 2 -8 12 -6 2470. 454. 908. <
6548 1 8 12 6 2470. 454. 908. <
6549 3 6 -12 8 2557. 4083. 1814. o
6549 2 8 12 6 2557. 4083. 1814. o
6549 1 -8 12 -6 2557. 4083. 1814. o
6550 2 7 13 -6 9. 454. 454. <
6550 1 -7 13 6 9. 454. 454. <
6551 2 -7 13 6 9. 907. 907. <
6551 1 7 13 -6 9. 907. 907. <
6552 2 5 13 -6 30. -454. 907. <
6552 1 -5 13 6 30. -454. 907. <
6553 2 -5 13 6 30. 0. 907. <
6553 1 5 13 -6 30. 0. 907. <
6554 2 -3 13 6 224. 0. 907. <
6554 1 3 13 -6 224. 0. 907. <
6555 2 1 13 -6 801. 454. 907. <
6555 1 -1 13 6 801. 454. 907. <
6556 2 -1 13 6 800. 2722. 906. o
6556 1 1 13 -6 800. 2722. 906. o
6557 2 -1 13 -6 800. 2268. 907. o
6557 1 1 13 6 800. 2268. 907. o
6558 2 1 13 6 801. 454. 907. <
6558 1 -1 13 -6 801. 454. 907. <
6559 2 -3 13 -6 224. 1361. 907. <
6559 1 3 13 6 224. 1361. 907. <
6560 2 -5 13 -6 30. 454. 454. <
6560 1 5 13 6 30. 454. 454. <
6561 2 5 13 6 30. 907. 907. <
6561 1 -5 13 -6 30. 907. 907. <
6562 2 -7 13 -6 9. 454. 907. <
6562 1 7 13 6 9. 454. 907. <
6563 2 7 13 6 9. 907. 907. <
6563 1 -7 13 -6 9. 907. 907. <
6564 3 -6 -14 8 503. 0. 907. <
6564 2 8 14 -6 503. 0. 907. <
6564 1 -8 14 6 503. 0. 907. <
6565 3 6 -14 -8 590. -1361. 907. <
6565 2 -8 14 6 590. -1361. 907. <
6565 1 8 14 -6 590. -1361. 907. <
6566 3 6 -14 -6 37283. 42644. 1782. o
6566 2 -6 14 6 37283. 42644. 1782. o
6566 1 6 14 -6 37283. 42644. 1782. o
6567 3 6 -14 -4 826. 1361. 907. <
6567 2 -4 14 6 826. 1361. 907. <
6567 1 4 14 -6 826. 1361. 907. <
6568 3 6 -14 -2 102068. 95268. 1085. o
6568 2 -2 14 6 102068. 95268. 1085. o
6568 1 2 14 -6 102068. 95268. 1085. o
6569 3 -6 -14 0 717. 4083. 904. o
6569 2 0 14 -6 717. 4083. 904. o
6569 1 0 14 6 717. 4083. 904. o
6570 3 -6 -14 -2 102283. 120219. 1483. o
6570 2 -2 14 -6 102283. 120219. 1483. o
6570 1 2 14 6 102283. 120219. 1483. o
6571 3 -6 -14 -4 747. 4083. 904. o
6571 2 -4 14 -6 747. 4083. 904. o
6571 1 4 14 6 747. 4083. 904. o
6572 3 6 -14 4 782. 907. 907. <
6572 2 4 14 6 782. 907. 907. <
6572 1 -4 14 -6 782. 907. 907. <
6573 3 -6 -14 -6 37389. 48541. 1740. o
6573 2 -6 14 -6 37389. 48541. 1740. o
6573 1 6 14 6 37389. 48541. 1740. o
6574 3 6 -14 6 37402. 18146. 2323. o
6574 2 6 14 6 37402. 18146. 2323. o
6574 1 -6 14 -6 37402. 18146. 2323. o
6575 3 -6 -14 -8 549. 1361. 907. <
6575 2 -8 14 -6 549. 1361. 907. <
6575 1 8 14 6 549. 1361. 907. <
6576 3 6 -14 8 544. 0. 1361. <
6576 2 8 14 6 544. 0. 1361. <
6576 1 -8 14 -6 544. 0. 1361. <
6577 2 7 15 -6 355. 454. 907. <
6577 1 -7 15 6 355. 454. 907. <
6578 2 -7 15 6 357. 907. 907. <
6578 1 7 15 -6 357. 907. 907. <
6579 2 5 15 -6 359. 1361. 453. o
6579 1 -5 15 6 359. 1361. 453. o
6580 2 -5 15 6 356. -454. 454. <
6580 1 5 15 -6 356. -454. 454. <
6581 2 3 15 -6 2391. 1815. 908. <
6581 1 -3 15 6 2391. 1815. 908. <
6582 2 -3 15 6 2398. 1815. 908. <
6582 1 3 15 -6 2398. 1815. 908. <
6583 2 -1 15 6 2576. 4537. 905. o
6583 1 1 15 -6 2576. 4537. 905. o
6584 2 -1 15 -6 2576. 2722. 907. o
6584 1 1 15 6 2576. 2722. 907. o
6585 2 1 15 6 2571. 2722. 453. o
6585 1 -1 15 -6 2571. 2722. 453. o
6586 2 -3 15 -6 2398. 907. 908. <
6586 1 3 15 6 2398. 907. 908. <
6587 2 -5 15 -6 356. 454. 454. <
6587 1 5 15 6 356. 454. 454. <
6588 2 5 15 6 359. 454. 454. <
6588 1 -5 15 -6 359. 454. 454. <
6589 2 -7 15 -6 357. 907. 453. <
6589 1 7 15 6 357. 907. 453. <
6590 2 7 15 6 355. -907. 907. <
6590 1 -7 15 -6 355. -907. 907. <
6591 3 -6 -16 8 54. 1361. 907. <
6591 2 8 16 -6 54. 1361. 907. <
6591 1 -8 16 6 54. 1361. 907. <
6592 3 6 -16 -8 75. -907. 453. <
6592 2 -8 16 6 75. -907. 453. <
6592 1 8 16 -6 75. -907. 453. <
6593 3 -6 -16 6 10421. 7258. 915. o
6593 2 6 16 -6 10421. 7258. 915. o
6593 1 -6 16 6 10421. 7258. 915. o
6594 3 6 -16 -6 10394. 12249. 901. o
6594 2 -6 16 6 10394. 12249. 901. o
6594 1 6 16 -6 10394. 12249. 901. o
6595 3 -6 -16 4 433. 907. 907. <
6595 2 4 16 -6 433. 907. 907. <
6595 1 -4 16 6 433. 907. 907. <
6596 3 6 -16 -4 465. 1361. 453. o
6596 2 -4 16 6 465. 1361. 453. o
6596 1 4 16 -6 465. 1361. 453. o
6597 3 6 -16 -2 51894. 58522. 1286. o
6597 2 -2 16 6 51894. 58522. 1286. o
6597 1 2 16 -6 51894. 58522. 1286. o
6598 3 -6 -16 0 532. 454. 907. <
6598 2 0 16 -6 532. 454. 907. <
6598 1 0 16 6 532. 454. 907. <
6599 3 -6 -16 -2 51869. 53531. 881. o
6599 2 -2 16 -6 51869. 53531. 881. o
6599 1 2 16 6 51869. 53531. 881. o
6600 3 -6 -16 -4 476. -454. 454. <
6600 2 -4 16 -6 476. -454. 454. <
6600 1 4 16 6 476. -454. 454. <
6601 3 6 -16 4 422. 0. 907. <
6601 2 4 16 6 422. 0. 907. <
6601 1 -4 16 -6 422. 0. 907. <
6602 3 -6 -16 -6 10407. 15424. 1347. o
6602 2 -6 16 -6 10407. 15424. 1347. o
6602 1 6 16 6 10407. 15424. 1347. o
6603 3 6 -16 6 10408. 4537. 1368. o
6603 2 6 16 6 10408. 4537. 1368. o
6603 1 -6 16 -6 10408. 4537. 1368. o
6604 3 -6 -16 -8 59. 2268. 906. o
6604 2 -8 16 -6 59. 2268. 906. o
6604 1 8 16 6 59. 2268. 906. o
6605 3 6 -16 8 70. 454. 1815. <
6605 2 8 16 6 70. 454. 1815. <
6605 1 -8 16 -6 70. 454. 1815. <
6606 2 7 17 -6 829. 1361. 907. <
6606 1 -7 17 6 829. 1361. 907. <
6607 2 -7 17 6 819. 0. 454. <
6607 1 7 17 -6 819. 0. 454. <
6608 2 5 17 -6 1590. -907. 907. <
6608 1 -5 17 6 1590. -907. 907. <
6609 2 -5 17 6 1598. 1815. 907. <
6609 1 5 17 -6 1598. 1815. 907. <
6610 2 3 17 -6 11751. 11795. 907. o
6610 1 -3 17 6 11751. 11795. 907. o
6611 2 -3 17 6 11704. 11341. 909. o
6611 1 3 17 -6 11704. 11341. 909. o
6612 2 1 17 -6 10937. 10434. 909. o
6612 1 -1 17 6 10937. 10434. 909. o
6613 2 -1 17 6 10939. 13156. 899. o
6613 1 1 17 -6 10939. 13156. 899. o
6614 2 -1 17 -6 10939. 10434. 909. o
6614 1 1 17 6 10939. 10434. 909. o
6615 2 -3 17 -6 11704. 11341. 456. o
6615 1 3 17 6 11704. 11341. 456. o
6616 2 -5 17 -6 1598. -454. 907. <
6616 1 5 17 6 1598. -454. 907. <
6617 2 5 17 6 1590. 907. 454. <
6617 1 -5 17 -6 1590. 907. 454. <
6618 2 -7 17 -6 819. -454. 454. <
6618 1 7 17 6 819. -454. 454. <
6619 2 7 17 6 829. 454. 907. <
6619 1 -7 17 -6 829. 454. 907. <
6620 3 -6 -18 8 190. 907. 907. <
6620 2 8 18 -6 190. 907. 907. <
6620 1 -8 18 6 190. 907. 907. <
6621 3 6 -18 -8 212. 907. 907. <
6621 2 -8 18 6 212. 907. 907. <
6621 1 8 18 -6 212. 907. 907. <
6622 3 -6 -18 6 6186. 4083. 910. o
6622 2 6 18 -6 6186. 4083. 910. o
6622 1 -6 18 6 6186. 4083. 910. o
6623 3 -6 -18 4 802. -907. 907. <
6623 2 4 18 -6 802. -907. 907. <
6623 1 -4 18 6 802. -907. 907. <
6624 3 6 -18 -4 897. 907. 454. <
6624 2 -4 18 6 897. 907. 454. <
6624 1 4 18 -6 897. 907. 454. <
6625 3 -6 -18 2 46514. 42644. 1394. o
6625 2 2 18 -6 46514. 42644. 1394. o
6625 1 -2 18 6 46514. 42644. 1394. o
6626 3 6 -18 -2 46457. 49902. 1328. o
6626 2 -2 18 6 46457. 49902. 1328. o
6626 1 2 18 -6 46457. 49902. 1328. o
6627 3 -6 -18 0 2216. 2268. 907. o
6627 2 0 18 -6 2216. 2268. 907. o
6627 1 0 18 6 2216. 2268. 907. o
6628 3 6 -18 0 2284. 1361. 908. <
6628 2 0 18 6 2284. 1361. 908. <
6628 1 0 18 -6 2284. 1361. 908. <
6629 3 -6 -18 -2 46508. 47180. 1355. o
6629 2 -2 18 -6 46508. 47180. 1355. o
6629 1 2 18 6 46508. 47180. 1355. o
6630 3 -6 -18 -4 854. 907. 454. <
6630 2 -4 18 -6 854. 907. 454. <
6630 1 4 18 6 854. 907. 454. <
6631 3 6 -18 4 844. 0. 907. <
6631 2 4 18 6 844. 0. 907. <
6631 1 -4 18 -6 844. 0. 907. <
6632 3 -6 -18 -6 6163. 7258. 905. o
6632 2 -6 18 -6 6163. 7258. 905. o
6632 1 6 18 6 6163. 7258. 905. o
6633 3 6 -18 6 6166. 4990. 1362. o
6633 2 6 18 6 6166. 4990. 1362. o
6633 1 -6 18 -6 6166. 4990. 1362. o
6634 3 -6 -18 -8 202. 0. 907. <
6634 2 -8 18 -6 202. 0. 907. <
6634 1 8 18 6 202. 0. 907. <
6635 3 6 -18 8 201. 454. 1815. <
6635 2 8 18 6 201. 454. 1815. <
6635 1 -8 18 -6 201. 454. 1815. <
6636 2 7 19 -6 2474. 2722. 907. o
6636 1 -7 19 6 2474. 2722. 907. o
6637 2 -7 19 6 2485. 1815. 454. o
6637 1 7 19 -6 2485. 1815. 454. o
6638 2 5 19 -6 766. 1815. 907. <
6638 1 -5 19 6 766. 1815. 907. <
6639 2 -5 19 6 759. 0. 907. <
6639 1 5 19 -6 759. 0. 907. <
6640 2 -3 19 6 28594. 29488. 900. o
6640 1 3 19 -6 28594. 29488. 900. o
6641 2 1 19 -6 27069. 26312. 913. o
6641 1 -1 19 6 27069. 26312. 913. o
6642 2 -1 19 6 27080. 26766. 910. o
6642 1 1 19 -6 27080. 26766. 910. o
6643 2 -1 19 -6 27080. 24951. 923. o
6643 1 1 19 6 27080. 24951. 923. o
6644 2 -3 19 -6 28594. 25858. 929. o
6644 1 3 19 6 28594. 25858. 929. o
6645 2 -5 19 -6 759. 1361. 907. <
6645 1 5 19 6 759. 1361. 907. <
6646 2 5 19 6 766. 454. 454. <
6646 1 -5 19 -6 766. 454. 454. <
6647 2 -7 19 -6 2485. 1815. 454. o
6647 1 7 19 6 2485. 1815. 454. o
6648 2 7 19 6 2474. -907. 1361. <
6648 1 -7 19 -6 2474. -907. 1361. <
6649 3 -6 -20 8 105. 907. 907. <
6649 2 8 20 -6 105. 907. 907. <
6649 1 -8 20 6 105. 907. 907. <
6650 3 6 -20 -8 95. 0. 907. <
6650 2 -8 20 6 95. 0. 907. <
6650 1 8 20 -6 95. 0. 907. <
6651 3 -6 -20 6 4598. 4083. 908. o
6651 2 6 20 -6 4598. 4083. 908. o
6651 1 -6 20 6 4598. 4083. 908. o
6652 3 -6 -20 4 2200. 907. 908. <
6652 2 4 20 -6 2200. 907. 908. <
6652 1 -4 20 6 2200. 907. 908. <
6653 3 6 -20 -4 2155. 3176. 906. o
6653 2 -4 20 6 2155. 3176. 906. o
6653 1 4 20 -6 2155. 3176. 906. o
6654 3 6 -20 -2 28051. 30849. 882. o
6654 2 -2 20 6 28051. 30849. 882. o
6654 1 2 20 -6 28051. 30849. 882. o
6655 3 -6 -20 0 9760. 9980. 907. o
6655 2 0 20 -6 9760. 9980. 907. o
6655 1 0 20 6 9760. 9980. 907. o
6656 3 6 -20 0 9672. 11341. 902. o
6656 2 0 20 6 9672. 11341. 902. o
6656 1 0 20 -6 9672. 11341. 902. o
6657 3 -6 -20 -2 27992. 30849. 882. o
6657 2 -2 20 -6 27992. 30849. 882. o
6657 1 2 20 6 27992. 30849. 882. o
6658 3 6 -20 2 28031. 33117. 859. o
6658 2 2 20 6 28031. 33117. 859. o
6658 1 -2 20 -6 28031. 33117. 859. o
6659 3 -6 -20 -4 2193. 2722. 453. o
6659 2 -4 20 -6 2193. 2722. 453. o
6659 1 4 20 6 2193. 2722. 453. o
6660 3 6 -20 4 2162. 2722. 453. o
6660 2 4 20 6 2162. 2722. 453. o
6660 1 -4 20 -6 2162. 2722. 453. o
6661 3 -6 -20 -6 4615. 4990. 907. o
6661 2 -6 20 -6 4615. 4990. 907. o
6661 1 6 20 6 4615. 4990. 907. o
6662 3 6 -20 6 4613. 3629. 1362. o
6662 2 6 20 6 4613. 3629. 1362. o
6662 1 -6 20 -6 4613. 3629. 1362. o
6663 3 -6 -20 -8 97. 454. 907. <
6663 2 -8 20 -6 97. 454. 907. <
6663 1 8 20 6 97. 454. 907. <
6664 3 6 -20 8 102. 454. 1815. <
6664 2 8 20 6 102. 454. 1815. <
6664 1 -8 20 -6 102. 454. 1815. <
6665 2 7 21 -6 539. 907. 907. <
6665 1 -7 21 6 539. 907. 907. <
6666 2 -7 21 6 540. 1361. 907. <
6666 1 7 21 -6 540. 1361. 907. <
6667 2 5 21 -6 101. 0. 454. <
6667 1 -5 21 6 101. 0. 454. <
6668 2 -5 21 6 104. 454. 454. <
6668 1 5 21 -6 104. 454. 454. <
6669 2 -3 21 6 1407. 1815. 907. <
6669 1 3 21 -6 1407. 1815. 907. <
6670 2 1 21 -6 3494. 2268. 908. o
6670 1 -1 21 6 3494. 2268. 908. o
6671 2 -1 21 6 3500. 3629. 907. o
6671 1 1 21 -6 3500. 3629. 907. o
6672 2 -1 21 -6 3500. 2268. 908. o
6672 1 1 21 6 3500. 2268. 908. o
6673 2 1 21 6 3494. 2268. 908. o
6673 1 -1 21 -6 3494. 2268. 908. o
6674 2 -3 21 -6 1407. 2268. 907. o
6674 1 3 21 6 1407. 2268. 907. o
6675 2 3 21 6 1416. 454. 908. <
6675 1 -3 21 -6 1416. 454. 908. <
6676 2 -5 21 -6 104. 0. 907. <
6676 1 5 21 6 104. 0. 907. <
6677 2 5 21 6 101. -454. 907. <
6677 1 -5 21 -6 101. -454. 907. <
6678 2 -7 21 -6 540. 907. 453. <
6678 1 7 21 6 540. 907. 453. <
6679 2 7 21 6 539. 454. 907. <
6679 1 -7 21 -6 539. 454. 907. <
6680 3 -6 -22 8 133. 454. 907. <
6680 2 8 22 -6 133. 454. 907. <
6680 1 -8 22 6 133. 454. 907. <
6681 3 6 -22 -8 153. -454. 454. <
6681 2 -8 22 6 153. -454. 454. <
6681 1 8 22 -6 153. -454. 454. <
6682 3 -6 -22 6 5965. 3629. 1363. o
6682 2 6 22 -6 5965. 3629. 1363. o
6682 1 -6 22 6 5965. 3629. 1363. o
6683 3 6 -22 -6 5959. 8166. 1358. o
6683 2 -6 22 6 5959. 8166. 1358. o
6683 1 6 22 -6 5959. 8166. 1358. o
6684 3 -6 -22 4 2214. 2268. 907. o
6684 2 4 22 -6 2214. 2268. 907. o
6684 1 -4 22 6 2214. 2268. 907. o
6685 3 6 -22 -4 2311. 3176. 907. o
6685 2 -4 22 6 2311. 3176. 907. o
6685 1 4 22 -6 2311. 3176. 907. o
6686 3 6 -22 -2 8663. 7712. 910. o
6686 2 -2 22 6 8663. 7712. 910. o
6686 1 2 22 -6 8663. 7712. 910. o
6687 3 -6 -22 0 12707. 13156. 450. o
6687 2 0 22 -6 12707. 13156. 450. o
6687 1 0 22 6 12707. 13156. 450. o
6688 3 6 -22 0 12733. 13610. 904. o
6688 2 0 22 6 12733. 13610. 904. o
6688 1 0 22 -6 12733. 13610. 904. o
6689 3 -6 -22 -2 8683. 907. 1366. <
6689 2 -2 22 -6 8683. 907. 1366. <
6689 1 2 22 6 8683. 907. 1366. <
6690 3 6 -22 2 8616. 9980. 903. o
6690 2 2 22 6 8616. 9980. 903. o
6690 1 -2 22 -6 8616. 9980. 903. o
6691 3 -6 -22 -4 2278. 3629. 906. o
6691 2 -4 22 -6 2278. 3629. 906. o
6691 1 4 22 6 2278. 3629. 906. o
6692 3 6 -22 4 2247. 1815. 908. <
6692 2 4 22 6 2247. 1815. 908. <
6692 1 -4 22 -6 2247. 1815. 908. <
6693 3 -6 -22 -6 5962. 8166. 902. o
6693 2 -6 22 -6 5962. 8166. 902. o
6693 1 6 22 6 5962. 8166. 902. o
6694 3 6 -22 6 5962. 2268. 1364. <
6694 2 6 22 6 5962. 2268. 1364. <
6694 1 -6 22 -6 5962. 2268. 1364. <
6695 3 -6 -22 -8 144. 454. 907. <
6695 2 -8 22 -6 144. 454. 907. <
6695 1 8 22 6 144. 454. 907. <
6696 3 6 -22 8 143. 0. 1815. <
6696 2 8 22 6 143. 0. 1815. <
6696 1 -8 22 -6 143. 0. 1815. <
6697 2 7 23 -6 315. 907. 907. <
6697 1 -7 23 6 315. 907. 907. <
6698 2 -7 23 6 314. 1815. 907. <
6698 1 7 23 -6 314. 1815. 907. <
6699 2 5 23 -6 576. 907. 454. <
6699 1 -5 23 6 576. 907. 454. <
6700 2 -5 23 6 577. 0. 907. <
6700 1 5 23 -6 577. 0. 907. <
6701 2 -3 23 6 433. 907. 453. <
6701 1 3 23 -6 433. 907. 453. <
6702 2 1 23 -6 1621. 907. 908. <
6702 1 -1 23 6 1621. 907. 908. <
6703 2 -1 23 6 1625. 1815. 453. o
6703 1 1 23 -6 1625. 1815. 453. o
6704 2 -1 23 -6 1625. 1815. 907. <
6704 1 1 23 6 1625. 1815. 907. <
6705 2 1 23 6 1621. 2268. 453. o
6705 1 -1 23 -6 1621. 2268. 453. o
6706 2 -3 23 -6 433. 907. 453. <
6706 1 3 23 6 433. 907. 453. <
6707 2 3 23 6 439. 907. 907. <
6707 1 -3 23 -6 439. 907. 907. <
6708 2 -5 23 -6 577. 0. 907. <
6708 1 5 23 6 577. 0. 907. <
6709 2 5 23 6 576. 454. 907. <
6709 1 -5 23 -6 576. 454. 907. <
6710 2 -7 23 -6 314. 454. 454. <
6710 1 7 23 6 314. 454. 454. <
6711 2 7 23 6 315. 1361. 1361. <
6711 1 -7 23 -6 315. 1361. 1361. <
6712 3 -6 -24 8 2715. 2722. 907. o
6712 2 8 24 -6 2715. 2722. 907. o
6712 1 -8 24 6 2715. 2722. 907. o
6713 3 6 -24 -8 2988. 2722. 454. o
6713 2 -8 24 6 2988. 2722. 454. o
6713 1 8 24 -6 2988. 2722. 454. o
6714 3 6 -24 -6 121605. 161955. 311. o
6714 2 -6 24 6 121605. 161955. 311. o
6714 1 6 24 -6 121605. 161955. 311. o
6715 3 6 -24 -4 26197. 30849. 1334. o
6715 2 -4 24 6 26197. 30849. 1334. o
6715 1 4 24 -6 26197. 30849. 1334. o
6716 3 -6 -24 2 628212. 579318. 5061. o
6716 2 2 24 -6 628212. 579318. 5061. o
6716 1 -2 24 6 628212. 579318. 5061. o
6717 3 6 -24 -2 627716. 653264. 1140. o
6717 2 -2 24 6 627716. 653264. 1140. o
6717 1 2 24 -6 627716. 653264. 1140. o
6718 3 -6 -24 0 50693. 45366. 1409. o
6718 2 0 24 -6 50693. 45366. 1409. o
6718 1 0 24 6 50693. 45366. 1409. o
6719 3 6 -24 0 51277. 49902. 1374. o
6719 2 0 24 6 51277. 49902. 1374. o
6719 1 0 24 -6 51277. 49902. 1374. o
6720 3 -6 -24 -2 627857. 629674. 2608. o
6720 2 -2 24 -6 627857. 629674. 2608. o
6720 1 2 24 6 627857. 629674. 2608. o
6721 3 6 -24 2 628070. 528055. 6112. o
6721 2 2 24 6 628070. 528055. 6112. o
6721 1 -2 24 -6 628070. 528055. 6112. o
6722 3 -6 -24 -4 25755. 28127. 888. o
6722 2 -4 24 -6 25755. 28127. 888. o
6722 1 4 24 6 25755. 28127. 888. o
6723 3 6 -24 4 25574. 26312. 1357. o
6723 2 4 24 6 25574. 26312. 1357. o
6723 1 -4 24 -6 25574. 26312. 1357. o
6724 3 -6 -24 -6 121826. 167853. 1184. o
6724 2 -6 24 -6 121826. 167853. 1184. o
6724 1 6 24 6 121826. 167853. 1184. o
6725 3 6 -24 6 121853. 131560. 2597. o
6725 2 6 24 6 121853. 131560. 2597. o
6725 1 -6 24 -6 121853. 131560. 2597. o
6726 3 -6 -24 -8 2829. 1361. 908. <
6726 2 -8 24 -6 2829. 1361. 908. <
6726 1 8 24 6 2829. 1361. 908. <
6727 3 6 -24 8 2874. 4083. 1814. o
6727 2 8 24 6 2874. 4083. 1814. o
6727 1 -8 24 -6 2874. 4083. 1814. o
6728 2 7 25 -6 58. 907. 907. <
6728 1 -7 25 6 58. 907. 907. <
6729 2 -7 25 6 59. 1361. 453. o
6729 1 7 25 -6 59. 1361. 453. o
6730 2 5 25 -6 108. 907. 453. <
6730 1 -5 25 6 108. 907. 453. <
6731 2 -5 25 6 106. 0. 907. <
6731 1 5 25 -6 106. 0. 907. <
6732 2 3 25 -6 599. 0. 454. <
6732 1 -3 25 6 599. 0. 454. <
6733 2 -3 25 6 600. 1815. 453. o
6733 1 3 25 -6 600. 1815. 453. o
6734 2 -1 25 6 1566. 907. 908. <
6734 1 1 25 -6 1566. 907. 908. <
6735 2 -1 25 -6 1566. 1361. 907. <
6735 1 1 25 6 1566. 1361. 907. <
6736 2 1 25 6 1570. 2268. 453. o
6736 1 -1 25 -6 1570. 2268. 453. o
6737 2 -3 25 -6 600. 907. 454. <
6737 1 3 25 6 600. 907. 454. <
6738 2 3 25 6 599. 0. 907. <
6738 1 -3 25 -6 599. 0. 907. <
6739 2 -5 25 -6 106. 0. 454. <
6739 1 5 25 6 106. 0. 454. <
6740 2 5 25 6 108. 907. 453. <
6740 1 -5 25 -6 108. 907. 453. <
6741 2 -7 25 -6 59. -454. 454. <
6741 1 7 25 6 59. -454. 454. <
6742 2 7 25 6 58. 907. 1361. <
6742 1 -7 25 -6 58. 907. 1361. <
6743 3 -6 -26 8 584. 1361. 907. <
6743 2 8 26 -6 584. 1361. 907. <
6743 1 -8 26 6 584. 1361. 907. <
6744 3 6 -26 -8 661. 1815. 453. o
6744 2 -8 26 6 661. 1815. 453. o
6744 1 8 26 -6 661. 1815. 453. o
6745 3 6 -26 -6 27399. 57161. 1595. o
6745 2 -6 26 6 27399. 57161. 1595. o
6745 1 6 26 -6 27399. 57161. 1595. o
6746 3 6 -26 -4 4024. 4083. 454. o
6746 2 -4 26 6 4024. 4083. 454. o
6746 1 4 26 -6 4024. 4083. 454. o
6747 3 -6 -26 2 112983. 108877. 1880. o
6747 2 2 26 -6 112983. 108877. 1880. o
6747 1 -2 26 6 112983. 108877. 1880. o
6748 3 6 -26 -2 112945. 101165. 1585. o
6748 2 -2 26 6 112945. 101165. 1585. o
6748 1 2 26 -6 112945. 101165. 1585. o
6749 3 -6 -26 0 8574. 9073. 906. o
6749 2 0 26 -6 8574. 9073. 906. o
6749 1 0 26 6 8574. 9073. 906. o
6750 3 6 -26 0 8748. 8619. 908. o
6750 2 0 26 6 8748. 8619. 908. o
6750 1 0 26 -6 8748. 8619. 908. o
6751 3 -6 -26 -2 112974. 111599. 1837. o
6751 2 -2 26 -6 112974. 111599. 1837. o
6751 1 2 26 6 112974. 111599. 1837. o
6752 3 6 -26 2 112953. 94360. 2071. o
6752 2 2 26 6 112953. 94360. 2071. o
6752 1 -2 26 -6 112953. 94360. 2071. o
6753 3 -6 -26 -4 3894. 4537. 906. o
6753 2 -4 26 -6 3894. 4537. 906. o
6753 1 4 26 6 3894. 4537. 906. o
6754 3 6 -26 4 3855. 2722. 908. o
6754 2 4 26 6 3855. 2722. 908. o
6754 1 -4 26 -6 3855. 2722. 908. o
6755 3 -6 -26 -6 27447. 35385. 1776. o
6755 2 -6 26 -6 27447. 35385. 1776. o
6755 1 6 26 6 27447. 35385. 1776. o
6756 3 6 -26 6 27453. 11795. 1853. o
6756 2 6 26 6 27453. 11795. 1853. o
6756 1 -6 26 -6 27453. 11795. 1853. o
6757 3 -6 -26 -8 621. 2268. 906. o
6757 2 -8 26 -6 621. 2268. 906. o
6757 1 8 26 6 621. 2268. 906. o
6758 3 6 -26 8 625. 0. 1815. <
6758 2 8 26 6 625. 0. 1815. <
6758 1 -8 26 -6 625. 0. 1815. <
6759 2 7 27 -6 276. 454. 454. <
6759 1 -7 27 6 276. 454. 454. <
6760 2 -7 27 6 278. 454. 454. <
6760 1 7 27 -6 278. 454. 454. <
6761 2 5 27 -6 816. 907. 454. <
6761 1 -5 27 6 816. 907. 454. <
6762 2 -5 27 6 813. 907. 454. <
6762 1 5 27 -6 813. 907. 454. <
6763 2 -3 27 6 599. 907. 454. <
6763 1 3 27 -6 599. 907. 454. <
6764 2 1 27 -6 1719. 907. 908. <
6764 1 -1 27 6 1719. 907. 908. <
6765 2 -1 27 6 1721. 1815. 907. <
6765 1 1 27 -6 1721. 1815. 907. <
6766 2 -1 27 -6 1721. 907. 454. <
6766 1 1 27 6 1721. 907. 454. <
6767 2 1 27 6 1719. 907. 908. <
6767 1 -1 27 -6 1719. 907. 908. <
6768 2 -3 27 -6 599. 907. 454. <
6768 1 3 27 6 599. 907. 454. <
6769 2 3 27 6 601. 454. 907. <
6769 1 -3 27 -6 601. 454. 907. <
6770 2 -5 27 -6 813. 907. 454. <
6770 1 5 27 6 813. 907. 454. <
6771 2 5 27 6 816. 907. 454. <
6771 1 -5 27 -6 816. 907. 454. <
6772 2 -7 27 -6 278. 0. 454. <
6772 1 7 27 6 278. 0. 454. <
6773 2 7 27 6 276. -1361. 1361. <
6773 1 -7 27 -6 276. -1361. 1361. <
6774 3 -6 -28 8 73. 907. 907. <
6774 2 8 28 -6 73. 907. 907. <
6774 1 -8 28 6 73. 907. 907. <
6775 3 6 -28 -8 87. 454. 454. <
6775 2 -8 28 6 87. 454. 454. <
6775 1 8 28 -6 87. 454. 454. <
6776 3 -6 -28 6 4728. 4990. 907. o
6776 2 6 28 -6 4728. 4990. 907. o
6776 1 -6 28 6 4728. 4990. 907. o
6777 3 6 -28 -6 4704. 3629. 456. o
6777 2 -6 28 6 4704. 3629. 456. o
6777 1 6 28 -6 4704. 3629. 456. o
6778 3 -6 -28 4 547. 1815. 453. o
6778 2 4 28 -6 547. 1815. 453. o
6778 1 -4 28 6 547. 1815. 453. o
6779 3 6 -28 -4 567. -454. 454. <
6779 2 -4 28 6 567. -454. 454. <
6779 1 4 28 -6 567. -454. 454. <
6780 3 -6 -28 2 22090. 24044. 894. o
6780 2 2 28 -6 22090. 24044. 894. o
6780 1 -2 28 6 22090. 24044. 894. o
6781 3 6 -28 -2 22070. 22229. 452. o
6781 2 -2 28 6 22070. 22229. 452. o
6781 1 2 28 -6 22070. 22229. 452. o
6782 3 -6 -28 0 1029. 1361. 907. <
6782 2 0 28 -6 1029. 1361. 907. <
6782 1 0 28 6 1029. 1361. 907. <
6783 3 6 -28 0 1025. -907. 907. <
6783 2 0 28 6 1025. -907. 907. <
6783 1 0 28 -6 1025. -907. 907. <
6784 3 -6 -28 -2 22048. 21322. 912. o
6784 2 -2 28 -6 22048. 21322. 912. o
6784 1 2 28 6 22048. 21322. 912. o
6785 3 -6 -28 -4 563. 907. 453. <
6785 2 -4 28 -6 563. 907. 453. <
6785 1 4 28 6 563. 907. 453. <
6786 3 6 -28 4 551. 454. 454. <
6786 2 4 28 6 551. 454. 454. <
6786 1 -4 28 -6 551. 454. 454. <
6787 3 -6 -28 -6 4715. 1815. 458. o
6787 2 -6 28 -6 4715. 1815. 458. o
6787 1 6 28 6 4715. 1815. 458. o
6788 3 6 -28 6 4717. 2722. 909. o
6788 2 6 28 6 4717. 2722. 909. o
6788 1 -6 28 -6 4717. 2722. 909. o
6789 3 -6 -28 -8 78. 454. 907. <
6789 2 -8 28 -6 78. 454. 907. <
6789 1 8 28 6 78. 454. 907. <
6790 3 6 -28 8 82. 454. 1815. <
6790 2 8 28 6 82. 454. 1815. <
6790 1 -8 28 -6 82. 454. 1815. <
6791 2 7 29 -6 270. 907. 907. <
6791 1 -7 29 6 270. 907. 907. <
6792 2 -7 29 6 266. 907. 453. <
6792 1 7 29 -6 266. 907. 453. <
6793 2 5 29 -6 2690. -1361. 907. <
6793 1 -5 29 6 2690. -1361. 907. <
6794 2 -5 29 6 2710. 2722. 454. o
6794 1 5 29 -6 2710. 2722. 454. o
6795 2 -3 29 6 109. 907. 907. <
6795 1 3 29 -6 109. 907. 907. <
6796 2 1 29 -6 3642. 5444. 905. o
6796 1 -1 29 6 3642. 5444. 905. o
6797 2 -1 29 6 3661. 2268. 908. o
6797 1 1 29 -6 3661. 2268. 908. o
6798 2 -1 29 -6 3661. 2268. 456. o
6798 1 1 29 6 3661. 2268. 456. o
6799 2 1 29 6 3642. 4083. 453. o
6799 1 -1 29 -6 3642. 4083. 453. o
6800 2 -3 29 -6 109. 2722. 906. o
6800 1 3 29 6 109. 2722. 906. o
6801 2 -5 29 -6 2710. 1815. 455. o
6801 1 5 29 6 2710. 1815. 455. o
6802 2 -7 29 -6 266. -907. 453. <
6802 1 7 29 6 266. -907. 453. <
6803 2 7 29 6 270. 0. 1361. <
6803 1 -7 29 -6 270. 0. 1361. <
6804 3 -6 -30 8 145. -907. 907. <
6804 2 8 30 -6 145. -907. 907. <
6804 1 -8 30 6 145. -907. 907. <
6805 3 6 -30 -8 154. 454. 454. <
6805 2 -8 30 6 154. 454. 454. <
6805 1 8 30 -6 154. 454. 454. <
6806 3 -6 -30 6 2495. 1361. 908. <
6806 2 6 30 -6 2495. 1361. 908. <
6806 1 -6 30 6 2495. 1361. 908. <
6807 3 6 -30 -6 2468. 3629. 451. o
6807 2 -6 30 6 2468. 3629. 451. o
6807 1 6 30 -6 2468. 3629. 451. o
6808 3 -6 -30 4 869. 1361. 453. o
6808 2 4 30 -6 869. 1361. 453. o
6808 1 -4 30 6 869. 1361. 453. o
6809 3 6 -30 -4 890. 1361. 453. o
6809 2 -4 30 6 890. 1361. 453. o
6809 1 4 30 -6 890. 1361. 453. o
6810 3 -6 -30 2 10599. 9980. 909. o
6810 2 2 30 -6 10599. 9980. 909. o
6810 1 -2 30 6 10599. 9980. 909. o
6811 3 6 -30 -2 10517. 9980. 457. o
6811 2 -2 30 6 10517. 9980. 457. o
6811 1 2 30 -6 10517. 9980. 457. o
6812 3 -6 -30 0 470. 0. 907. <
6812 2 0 30 -6 470. 0. 907. <
6812 1 0 30 6 470. 0. 907. <
6813 3 -6 -30 -2 10558. 9980. 457. o
6813 2 -2 30 -6 10558. 9980. 457. o
6813 1 2 30 6 10558. 9980. 457. o
6814 3 6 -30 2 10558. 10434. 908. o
6814 2 2 30 6 10558. 10434. 908. o
6814 1 -2 30 -6 10558. 10434. 908. o
6815 3 -6 -30 -4 872. 454. 454. <
6815 2 -4 30 -6 872. 454. 454. <
6815 1 4 30 6 872. 454. 454. <
6816 3 6 -30 4 887. -454. 454. <
6816 2 4 30 6 887. -454. 454. <
6816 1 -4 30 -6 887. -454. 454. <
6817 3 -6 -30 -6 2481. 1815. 454. o
6817 2 -6 30 -6 2481. 1815. 454. o
6817 1 6 30 6 2481. 1815. 454. o
6818 3 6 -30 6 2482. 2722. 907. o
6818 2 6 30 6 2482. 2722. 907. o
6818 1 -6 30 -6 2482. 2722. 907. o
6819 3 -6 -30 -8 150. -454. 907. <
6819 2 -8 30 -6 150. -454. 907. <
6819 1 8 30 6 150. -454. 907. <
6820 3 6 -30 8 148. 907. 2268. <
6820 2 8 30 6 148. 907. 2268. <
6820 1 -8 30 -6 148. 907. 2268. <
6821 2 7 31 -6 1471. 454. 908. <
6821 1 -7 31 6 1471. 454. 908. <
6822 2 -7 31 6 1476. 1815. 453. o
6822 1 7 31 -6 1476. 1815. 453. o
6823 2 5 31 -6 9411. 4537. 916. o
6823 1 -5 31 6 9411. 4537. 916. o
6824 2 -5 31 6 9391. 8619. 909. o
6824 1 5 31 -6 9391. 8619. 909. o
6825 2 3 31 -6 4782. 1815. 910. <
6825 1 -3 31 6 4782. 1815. 910. <
6826 2 -3 31 6 4777. 4537. 908. o
6826 1 3 31 -6 4777. 4537. 908. o
6827 2 -1 31 6 42282. 39014. 1386. o
6827 1 1 31 -6 42282. 39014. 1386. o
6828 2 -1 31 -6 42282. 36292. 972. o
6828 1 1 31 6 42282. 36292. 972. o
6829 2 1 31 6 42300. 39922. 935. o
6829 1 -1 31 -6 42300. 39922. 935. o
6830 2 -3 31 -6 4777. 4537. 908. o
6830 1 3 31 6 4777. 4537. 908. o
6831 2 -5 31 -6 9391. 9073. 455. o
6831 1 5 31 6 9391. 9073. 455. o
6832 2 -7 31 -6 1476. 1361. 454. o
6832 1 7 31 6 1476. 1361. 454. o
6833 2 7 31 6 1471. 1361. 1361. <
6833 1 -7 31 -6 1471. 1361. 1361. <
6834 3 -6 -32 8 139. 454. 907. <
6834 2 8 32 -6 139. 454. 907. <
6834 1 -8 32 6 139. 454. 907. <
6835 3 6 -32 -8 130. 2722. 451. o
6835 2 -8 32 6 130. 2722. 451. o
6835 1 8 32 -6 130. 2722. 451. o
6836 3 -6 -32 6 1559. 2268. 1361. <
6836 2 6 32 -6 1559. 2268. 1361. <
6836 1 -6 32 6 1559. 2268. 1361. <
6837 3 6 -32 -6 1580. 1361. 454. o
6837 2 -6 32 6 1580. 1361. 454. o
6837 1 6 32 -6 1580. 1361. 454. o
6838 3 -6 -32 4 1015. 1815. 907. <
6838 2 4 32 -6 1015. 1815. 907. <
6838 1 -4 32 6 1015. 1815. 907. <
6839 3 6 -32 -4 976. 907. 454. <
6839 2 -4 32 6 976. 907. 454. <
6839 1 4 32 -6 976. 907. 454. <
6840 3 -6 -32 2 2697. 2268. 908. o
6840 2 2 32 -6 2697. 2268. 908. o
6840 1 -2 32 6 2697. 2268. 908. o
6841 3 6 -32 -2 2734. 2722. 454. o
6841 2 -2 32 6 2734. 2722. 454. o
6841 1 2 32 -6 2734. 2722. 454. o
6842 3 -6 -32 0 636. 1361. 907. <
6842 2 0 32 -6 636. 1361. 907. <
6842 1 0 32 6 636. 1361. 907. <
6843 3 -6 -32 -2 2696. 3176. 453. o
6843 2 -2 32 -6 2696. 3176. 453. o
6843 1 2 32 6 2696. 3176. 453. o
6844 3 -6 -32 -4 997. 1361. 453. o
6844 2 -4 32 -6 997. 1361. 453. o
6844 1 4 32 6 997. 1361. 453. o
6845 3 6 -32 4 994. 1361. 453. o
6845 2 4 32 6 994. 1361. 453. o
6845 1 -4 32 -6 994. 1361. 453. o
6846 3 -6 -32 -6 1570. 907. 454. <
6846 2 -6 32 -6 1570. 907. 454. <
6846 1 6 32 6 1570. 907. 454. <
6847 3 6 -32 6 1569. 454. 908. <
6847 2 6 32 6 1569. 454. 908. <
6847 1 -6 32 -6 1569. 454. 908. <
6848 3 -6 -32 -8 134. 907. 907. <
6848 2 -8 32 -6 134. 907. 907. <
6848 1 8 32 6 134. 907. 907. <
6849 3 6 -32 8 135. -454. 2268. <
6849 2 8 32 6 135. -454. 2268. <
6849 1 -8 32 -6 135. -454. 2268. <
6850 2 7 33 -6 363. 907. 907. <
6850 1 -7 33 6 363. 907. 907. <
6851 2 -7 33 6 364. 454. 454. <
6851 1 7 33 -6 364. 454. 454. <
6852 2 5 33 -6 9. 454. 454. <
6852 1 -5 33 6 9. 454. 454. <
6853 2 -5 33 6 8. 2268. 452. o
6853 1 5 33 -6 8. 2268. 452. o
6854 2 3 33 -6 276. 454. 907. <
6854 1 -3 33 6 276. 454. 907. <
6855 2 -3 33 6 271. 907. 453. <
6855 1 3 33 -6 271. 907. 453. <
6856 2 1 33 -6 882. -1361. 907. <
6856 1 -1 33 6 882. -1361. 907. <
6857 2 -1 33 6 890. 454. 454. <
6857 1 1 33 -6 890. 454. 454. <
6858 2 1 33 6 882. -454. 454. <
6858 1 -1 33 -6 882. -454. 454. <
6859 2 -3 33 -6 271. 454. 454. <
6859 1 3 33 6 271. 454. 454. <
6860 2 3 33 6 276. 454. 907. <
6860 1 -3 33 -6 276. 454. 907. <
6861 2 -5 33 -6 8. -454. 454. <
6861 1 5 33 6 8. -454. 454. <
6862 2 5 33 6 9. -454. 1361. <
6862 1 -5 33 -6 9. -454. 1361. <
6863 2 -7 33 -6 364. 454. 454. <
6863 1 7 33 6 364. 454. 454. <
6864 2 7 33 6 363. 0. 1361. <
6864 1 -7 33 -6 363. 0. 1361. <
6865 3 -6 -34 6 2099. 1361. 1361. <
6865 2 6 34 -6 2099. 1361. 1361. <
6865 1 -6 34 6 2099. 1361. 1361. <
6866 3 6 -34 -6 2090. -454. 908. <
6866 2 -6 34 6 2090. -454. 908. <
6866 1 6 34 -6 2090. -454. 908. <
6867 3 -6 -34 4 1338. -1815. 907. <
6867 2 4 34 -6 1338. -1815. 907. <
6867 1 -4 34 6 1338. -1815. 907. <
6868 3 6 -34 -4 1322. -454. 454. <
6868 2 -4 34 6 1322. -454. 454. <
6868 1 4 34 -6 1322. -454. 454. <
6869 3 -6 -34 2 2638. 454. 908. <
6869 2 2 34 -6 2638. 454. 908. <
6869 1 -2 34 6 2638. 454. 908. <
6870 3 6 -34 -2 2609. 907. 455. <
6870 2 -2 34 6 2609. 907. 455. <
6870 1 2 34 -6 2609. 907. 455. <
6871 3 -6 -34 0 466. 454. 907. <
6871 2 0 34 -6 466. 454. 907. <
6871 1 0 34 6 466. 454. 907. <
6872 3 6 -34 0 471. 907. 907. <
6872 2 0 34 6 471. 907. 907. <
6872 1 0 34 -6 471. 907. 907. <
6873 3 -6 -34 -2 2605. 454. 455. <
6873 2 -2 34 -6 2605. 454. 455. <
6873 1 2 34 6 2605. 454. 455. <
6874 3 -6 -34 -4 1326. -454. 454. <
6874 2 -4 34 -6 1326. -454. 454. <
6874 1 4 34 6 1326. -454. 454. <
6875 3 6 -34 4 1334. -454. 907. <
6875 2 4 34 6 1334. -454. 907. <
6875 1 -4 34 -6 1334. -454. 907. <
6876 3 -6 -34 -6 2094. 2722. 907. o
6876 2 -6 34 -6 2094. 2722. 907. o
6876 1 6 34 6 2094. 2722. 907. o
6877 3 6 -34 6 2095. -907. 1361. <
6877 2 6 34 6 2095. -907. 1361. <
6877 1 -6 34 -6 2095. -907. 1361. <
6878 2 7 35 -6 123. 907. 907. <
6878 1 -7 35 6 123. 907. 907. <
6879 2 -7 35 6 123. 454. 454. <
6879 1 7 35 -6 123. 454. 454. <
6880 2 5 35 -6 592. 454. 454. <
6880 1 -5 35 6 592. 454. 454. <
6881 2 -5 35 6 592. 907. 454. <
6881 1 5 35 -6 592. 907. 454. <
6882 2 3 35 -6 81. 0. 454. <
6882 1 -3 35 6 81. 0. 454. <
6883 2 -3 35 6 82. 454. 454. <
6883 1 3 35 -6 82. 454. 454. <
6884 2 1 35 -6 99. 907. 453. <
6884 1 -1 35 6 99. 907. 453. <
6885 2 -1 35 6 100. -907. 907. <
6885 1 1 35 -6 100. -907. 907. <
6886 2 -1 35 -6 100. 454. 907. <
6886 1 1 35 6 100. 454. 907. <
6887 2 1 35 6 99. 1815. 907. <
6887 1 -1 35 -6 99. 1815. 907. <
6888 2 -3 35 -6 82. 0. 454. <
6888 1 3 35 6 82. 0. 454. <
6889 2 3 35 6 81. 454. 454. <
6889 1 -3 35 -6 81. 454. 454. <
6890 2 -5 35 -6 592. 907. 454. <
6890 1 5 35 6 592. 907. 454. <
6891 2 5 35 6 591. -454. 907. <
6891 1 -5 35 -6 591. -454. 907. <
6892 2 -7 35 -6 123. 1361. 453. o
6892 1 7 35 6 123. 1361. 453. o
6893 2 7 35 6 123. 0. 1361. <
6893 1 -7 35 -6 123. 0. 1361. <
6894 3 -6 -36 6 50741. 29034. 1927. o
6894 2 6 36 -6 50741. 29034. 1927. o
6894 1 -6 36 6 50741. 29034. 1927. o
6895 3 6 -36 -6 50486. 56707. 1293. o
6895 2 -6 36 6 50486. 56707. 1293. o
6895 1 6 36 -6 50486. 56707. 1293. o
6896 3 6 -36 -4 36241. 45819. 1278. o
6896 2 -4 36 6 36241. 45819. 1278. o
6896 1 4 36 -6 36241. 45819. 1278. o
6897 3 6 -36 -2 267278. 284896. 1588. o
6897 2 -2 36 6 267278. 284896. 1588. o
6897 1 2 36 -6 267278. 284896. 1588. o
6898 3 -6 -36 0 92088. 99804. 1205. o
6898 2 0 36 -6 92088. 99804. 1205. o
6898 1 0 36 6 92088. 99804. 1205. o
6899 3 6 -36 0 92111. 86648. 1884. o
6899 2 0 36 6 92111. 86648. 1884. o
6899 1 0 36 -6 92111. 86648. 1884. o
6900 3 -6 -36 -2 267511. 288979. 257. o
6900 2 -2 36 -6 267511. 288979. 257. o
6900 1 2 36 6 267511. 288979. 257. o
6901 3 6 -36 2 267561. 214579. 3422. o
6901 2 2 36 6 267561. 214579. 3422. o
6901 1 -2 36 -6 267561. 214579. 3422. o
6902 3 -6 -36 -4 36178. 46273. 1273. o
6902 2 -4 36 -6 36178. 46273. 1273. o
6902 1 4 36 6 36178. 46273. 1273. o
6903 3 -6 -36 -6 50606. 67141. 1658. o
6903 2 -6 36 -6 50606. 67141. 1658. o
6903 1 6 36 6 50606. 67141. 1658. o
6904 2 7 37 -6 69. 0. 907. <
6904 1 -7 37 6 69. 0. 907. <
6905 2 -7 37 6 69. -1361. 453. <
6905 1 7 37 -6 69. -1361. 453. <
6906 2 5 37 -6 98. -907. 907. <
6906 1 -5 37 6 98. -907. 907. <
6907 2 -5 37 6 97. 454. 454. <
6907 1 5 37 -6 97. 454. 454. <
6908 2 3 37 -6 632. 907. 907. <
6908 1 -3 37 6 632. 907. 907. <
6909 2 -3 37 6 633. 1815. 453. o
6909 1 3 37 -6 633. 1815. 453. o
6910 2 1 37 -6 667. -454. 907. <
6910 1 -1 37 6 667. -454. 907. <
6911 2 -1 37 6 667. 0. 907. <
6911 1 1 37 -6 667. 0. 907. <
6912 2 -1 37 -6 667. 454. 454. <
6912 1 1 37 6 667. 454. 454. <
6913 2 -3 37 -6 633. 907. 454. <
6913 1 3 37 6 633. 907. 454. <
6914 2 3 37 6 632. 907. 454. <
6914 1 -3 37 -6 632. 907. 454. <
6915 2 -5 37 -6 97. -454. 454. <
6915 1 5 37 6 97. -454. 454. <
6916 2 5 37 6 98. 454. 907. <
6916 1 -5 37 -6 98. 454. 907. <
6917 2 -7 37 -6 69. 454. 454. <
6917 1 7 37 6 69. 454. 454. <
6918 2 7 37 6 69. 1361. 1361. <
6918 1 -7 37 -6 69. 1361. 1361. <
6919 3 -6 -38 6 15713. 5898. 933. o
6919 2 6 38 -6 15713. 5898. 933. o
6919 1 -6 38 6 15713. 5898. 933. o
6920 3 6 -38 -6 15619. 14517. 912. o
6920 2 -6 38 6 15619. 14517. 912. o
6920 1 6 38 -6 15619. 14517. 912. o
6921 3 6 -38 -4 6384. 7258. 906. o
6921 2 -4 38 6 6384. 7258. 906. o
6921 1 4 38 -6 6384. 7258. 906. o
6922 3 6 -38 -2 62760. 59429. 1400. o
6922 2 -2 38 6 62760. 59429. 1400. o
6922 1 2 38 -6 62760. 59429. 1400. o
6923 3 -6 -38 0 13598. 12702. 911. o
6923 2 0 38 -6 13598. 12702. 911. o
6923 1 0 38 6 13598. 12702. 911. o
6924 3 6 -38 0 13556. 13156. 909. o
6924 2 0 38 6 13556. 13156. 909. o
6924 1 0 38 -6 13556. 13156. 909. o
6925 3 -6 -38 -2 62865. 61697. 928. o
6925 2 -2 38 -6 62865. 61697. 928. o
6925 1 2 38 6 62865. 61697. 928. o
6926 3 6 -38 2 62849. 49902. 1915. o
6926 2 2 38 6 62849. 49902. 1915. o
6926 1 -2 38 -6 62849. 49902. 1915. o
6927 3 -6 -38 -4 6377. 6805. 906. o
6927 2 -4 38 -6 6377. 6805. 906. o
6927 1 4 38 6 6377. 6805. 906. o
6928 3 -6 -38 -6 15663. 13610. 1367. o
6928 2 -6 38 -6 15663. 13610. 1367. o
6928 1 6 38 6 15663. 13610. 1367. o
6929 2 7 39 -6 132. -454. 907. <
6929 1 -7 39 6 132. -454. 907. <
6930 2 -7 39 6 133. 454. 454. <
6930 1 7 39 -6 133. 454. 454. <
6931 2 5 39 -6 120. 1815. 907. <
6931 1 -5 39 6 120. 1815. 907. <
6932 2 -5 39 6 120. 454. 454. <
6932 1 5 39 -6 120. 454. 454. <
6933 2 3 39 -6 945. 1361. 907. <
6933 1 -3 39 6 945. 1361. 907. <
6934 2 -3 39 6 944. 907. 454. <
6934 1 3 39 -6 944. 907. 454. <
6935 2 1 39 -6 228. 1361. 907. <
6935 1 -1 39 6 228. 1361. 907. <
6936 2 -1 39 6 230. 454. 454. <
6936 1 1 39 -6 230. 454. 454. <
6937 2 -1 39 -6 230. -907. 907. <
6937 1 1 39 6 230. -907. 907. <
6938 2 -3 39 -6 944. 1815. 453. o
6938 1 3 39 6 944. 1815. 453. o
6939 2 3 39 6 945. 907. 454. <
6939 1 -3 39 -6 945. 907. 454. <
6940 2 -5 39 -6 120. -907. 453. <
6940 1 5 39 6 120. -907. 453. <
6941 2 5 39 6 120. 0. 907. <
6941 1 -5 39 -6 120. 0. 907. <
6942 2 -7 39 -6 133. 0. 907. <
6942 1 7 39 6 133. 0. 907. <
6943 2 7 39 6 132. 454. 1361. <
6943 1 -7 39 -6 132. 454. 1361. <
6944 3 -6 -40 6 1829. 0. 908. <
6944 2 6 40 -6 1829. 0. 908. <
6944 1 -6 40 6 1829. 0. 908. <
6945 3 6 -40 -6 1823. 1361. 454. o
6945 2 -6 40 6 1823. 1361. 454. o
6945 1 6 40 -6 1823. 1361. 454. o
6946 3 -6 -40 4 2009. 2722. 453. o
6946 2 4 40 -6 2009. 2722. 453. o
6946 1 -4 40 6 2009. 2722. 453. o
6947 3 6 -40 -4 2027. 2268. 453. o
6947 2 -4 40 6 2027. 2268. 453. o
6947 1 4 40 -6 2027. 2268. 453. o
6948 3 -6 -40 2 10281. 12249. 901. o
6948 2 2 40 -6 10281. 12249. 901. o
6948 1 -2 40 6 10281. 12249. 901. o
6949 3 6 -40 -2 10281. 12702. 899. o
6949 2 -2 40 6 10281. 12702. 899. o
6949 1 2 40 -6 10281. 12702. 899. o
6950 3 -6 -40 0 5999. 5898. 454. o
6950 2 0 40 -6 5999. 5898. 454. o
6950 1 0 40 6 5999. 5898. 454. o
6951 3 6 -40 0 5987. 5444. 455. o
6951 2 0 40 6 5987. 5444. 455. o
6951 1 0 40 -6 5987. 5444. 455. o
6952 3 -6 -40 -2 10286. 10888. 905. o
6952 2 -2 40 -6 10286. 10888. 905. o
6952 1 2 40 6 10286. 10888. 905. o
6953 3 6 -40 2 10277. 7712. 466. o
6953 2 2 40 6 10277. 7712. 466. o
6953 1 -2 40 -6 10277. 7712. 466. o
6954 3 -6 -40 -4 2025. 2722. 453. o
6954 2 -4 40 -6 2025. 2722. 453. o
6954 1 4 40 6 2025. 2722. 453. o
6955 3 6 -40 4 2011. 1815. 907. <
6955 2 4 40 6 2011. 1815. 907. <
6955 1 -4 40 -6 2011. 1815. 907. <
6956 3 -6 -40 -6 1826. 1361. 908. <
6956 2 -6 40 -6 1826. 1361. 908. <
6956 1 6 40 6 1826. 1361. 908. <
6957 3 6 -40 6 1826. 1815. 1361. <
6957 2 6 40 6 1826. 1815. 1361. <
6957 1 -6 40 -6 1826. 1815. 1361. <
6958 2 7 41 -6 198. 907. 907. <
6958 1 -7 41 6 198. 907. 907. <
6959 2 -7 41 6 195. 454. 454. <
6959 1 7 41 -6 195. 454. 454. <
6960 2 5 41 -6 276. 0. 907. <
6960 1 -5 41 6 276. 0. 907. <
6961 2 -5 41 6 279. 454. 454. <
6961 1 5 41 -6 279. 454. 454. <
6962 2 3 41 -6 1240. -454. 454. <
6962 1 -3 41 6 1240. -454. 454. <
6963 2 -3 41 6 1228. 454. 454. <
6963 1 3 41 -6 1228. 454. 454. <
6964 2 1 41 -6 310. 907. 453. <
6964 1 -1 41 6 310. 907. 453. <
6965 2 -1 41 6 311. 454. 454. <
6965 1 1 41 -6 311. 454. 454. <
6966 2 -1 41 -6 311. 1361. 907. <
6966 1 1 41 6 311. 1361. 907. <
6967 2 1 41 6 310. 907. 907. <
6967 1 -1 41 -6 310. 907. 907. <
6968 2 -3 41 -6 1228. 454. 454. <
6968 1 3 41 6 1228. 454. 454. <
6969 2 3 41 6 1240. 907. 454. <
6969 1 -3 41 -6 1240. 907. 454. <
6970 2 -5 41 -6 279. 454. 454. <
6970 1 5 41 6 279. 454. 454. <
6971 2 5 41 6 276. 907. 907. <
6971 1 -5 41 -6 276. 907. 907. <
6972 2 -7 41 -6 195. 0. 907. <
6972 1 7 41 6 195. 0. 907. <
6973 2 7 41 6 198. -454. 1361. <
6973 1 -7 41 -6 198. -454. 1361. <
6974 3 -6 -42 6 677. 907. 907. <
6974 2 6 42 -6 677. 907. 907. <
6974 1 -6 42 6 677. 907. 907. <
6975 3 6 -42 -6 672. 1815. 453. o
6975 2 -6 42 6 672. 1815. 453. o
6975 1 6 42 -6 672. 1815. 453. o
6976 3 -6 -42 4 1592. 2268. 453. o
6976 2 4 42 -6 1592. 2268. 453. o
6976 1 -4 42 6 1592. 2268. 453. o
6977 3 6 -42 -4 1617. 1361. 454. o
6977 2 -4 42 6 1617. 1361. 454. o
6977 1 4 42 -6 1617. 1361. 454. o
6978 3 -6 -42 2 6946. 6805. 908. o
6978 2 2 42 -6 6946. 6805. 908. o
6978 1 -2 42 6 6946. 6805. 908. o
6979 3 6 -42 -2 6949. 6351. 908. o
6979 2 -2 42 6 6949. 6351. 908. o
6979 1 2 42 -6 6949. 6351. 908. o
6980 3 -6 -42 0 6533. 6351. 454. o
6980 2 0 42 -6 6533. 6351. 454. o
6980 1 0 42 6 6533. 6351. 454. o
6981 3 6 -42 0 6556. 6805. 453. o
6981 2 0 42 6 6556. 6805. 453. o
6981 1 0 42 -6 6556. 6805. 453. o
6982 3 -6 -42 -2 6960. 7258. 452. o
6982 2 -2 42 -6 6960. 7258. 452. o
6982 1 2 42 6 6960. 7258. 452. o
6983 3 6 -42 2 6935. 8166. 905. o
6983 2 2 42 6 6935. 8166. 905. o
6983 1 -2 42 -6 6935. 8166. 905. o
6984 3 -6 -42 -4 1605. 2268. 453. o
6984 2 -4 42 -6 1605. 2268. 453. o
6984 1 4 42 6 1605. 2268. 453. o
6985 3 6 -42 4 1604. 2722. 907. o
6985 2 4 42 6 1604. 2722. 907. o
6985 1 -4 42 -6 1604. 2722. 907. o
6986 3 -6 -42 -6 674. 454. 454. <
6986 2 -6 42 -6 674. 454. 454. <
6986 1 6 42 6 674. 454. 454. <
6987 3 6 -42 6 675. -454. 1361. <
6987 2 6 42 6 675. -454. 1361. <
6987 1 -6 42 -6 675. -454. 1361. <
6988 2 7 43 -6 1264. 2722. 906. o
6988 1 -7 43 6 1264. 2722. 906. o
6989 2 -7 43 6 1267. 1361. 454. o
6989 1 7 43 -6 1267. 1361. 454. o
6990 2 5 43 -6 599. 454. 454. <
6990 1 -5 43 6 599. 454. 454. <
6991 2 -5 43 6 598. 907. 454. <
6991 1 5 43 -6 598. 907. 454. <
6992 2 3 43 -6 14530. 15878. 901. o
6992 1 -3 43 6 14530. 15878. 901. o
6993 2 -3 43 6 14544. 13156. 1365. o
6993 1 3 43 -6 14544. 13156. 1365. o
6994 2 1 43 -6 14584. 15878. 901. o
6994 1 -1 43 6 14584. 15878. 901. o
6995 2 -1 43 6 14589. 14971. 450. o
6995 1 1 43 -6 14589. 14971. 450. o
6996 2 -1 43 -6 14589. 13156. 465. o
6996 1 1 43 6 14589. 13156. 465. o
6997 2 1 43 6 14584. 18146. 889. o
6997 1 -1 43 -6 14584. 18146. 889. o
6998 2 -3 43 -6 14544. 14971. 905. o
6998 1 3 43 6 14544. 14971. 905. o
6999 2 3 43 6 14530. 15424. 903. o
6999 1 -3 43 -6 14530. 15424. 903. o
7000 2 -5 43 -6 598. 0. 454. <
7000 1 5 43 6 598. 0. 454. <
7001 2 5 43 6 599. 907. 1361. <
7001 1 -5 43 -6 599. 907. 1361. <
7002 2 -7 43 -6 1267. 907. 907. <
7002 1 7 43 6 1267. 907. 907. <
7003 2 7 43 6 1264. 907. 1815. <
7003 1 -7 43 -6 1264. 907. 1815. <
7004 3 -6 -44 6 676. 1815. 907. <
7004 2 6 44 -6 676. 1815. 907. <
7004 1 -6 44 6 676. 1815. 907. <
7005 3 6 -44 -6 685. 907. 907. <
7005 2 -6 44 6 685. 907. 907. <
7005 1 6 44 -6 685. 907. 907. <
7006 3 -6 -44 4 1258. 907. 454. <
7006 2 4 44 -6 1258. 907. 454. <
7006 1 -4 44 6 1258. 907. 454. <
7007 3 6 -44 -4 1245. 1361. 454. o
7007 2 -4 44 6 1245. 1361. 454. o
7007 1 4 44 -6 1245. 1361. 454. o
7008 3 -6 -44 2 3677. 5444. 1359. o
7008 2 2 44 -6 3677. 5444. 1359. o
7008 1 -2 44 6 3677. 5444. 1359. o
7009 3 6 -44 -2 3693. 3629. 454. o
7009 2 -2 44 6 3693. 3629. 454. o
7009 1 2 44 -6 3693. 3629. 454. o
7010 3 -6 -44 0 4671. 5444. 906. o
7010 2 0 44 -6 4671. 5444. 906. o
7010 1 0 44 6 4671. 5444. 906. o
7011 3 6 -44 0 4655. 5444. 906. o
7011 2 0 44 6 4655. 5444. 906. o
7011 1 0 44 -6 4655. 5444. 906. o
7012 3 -6 -44 -2 3684. 1815. 909. <
7012 2 -2 44 -6 3684. 1815. 909. <
7012 1 2 44 6 3684. 1815. 909. <
7013 3 6 -44 2 3686. 5898. 904. o
7013 2 2 44 6 3686. 5898. 904. o
7013 1 -2 44 -6 3686. 5898. 904. o
7014 3 -6 -44 -4 1253. 907. 454. <
7014 2 -4 44 -6 1253. 907. 454. <
7014 1 4 44 6 1253. 907. 454. <
7015 3 6 -44 4 1250. 2722. 906. o
7015 2 4 44 6 1250. 2722. 906. o
7015 1 -4 44 -6 1250. 2722. 906. o
7016 3 -6 -44 -6 681. 907. 907. <
7016 2 -6 44 -6 681. 907. 907. <
7016 1 6 44 6 681. 907. 907. <
7017 3 6 -44 6 680. 907. 1361. <
7017 2 6 44 6 680. 907. 1361. <
7017 1 -6 44 -6 680. 907. 1361. <
7018 2 7 45 -6 172. -454. 907. <
7018 1 -7 45 6 172. -454. 907. <
7019 2 -7 45 6 173. 1361. 907. <
7019 1 7 45 -6 173. 1361. 907. <
7020 2 5 45 -6 6. 907. 453. <
7020 1 -5 45 6 6. 907. 453. <
7021 2 -5 45 6 7. 907. 453. <
7021 1 5 45 -6 7. 907. 453. <
7022 2 3 45 -6 8. 907. 453. <
7022 1 -3 45 6 8. 907. 453. <
7023 2 -3 45 6 8. 0. 907. <
7023 1 3 45 -6 8. 0. 907. <
7024 2 1 45 -6 267. 907. 907. <
7024 1 -1 45 6 267. 907. 907. <
7025 2 -1 45 6 271. 2268. 906. o
7025 1 1 45 -6 271. 2268. 906. o
7026 2 -1 45 -6 271. -907. 453. <
7026 1 1 45 6 271. -907. 453. <
7027 2 1 45 6 267. 0. 907. <
7027 1 -1 45 -6 267. 0. 907. <
7028 2 -3 45 -6 8. -454. 454. <
7028 1 3 45 6 8. -454. 454. <
7029 2 3 45 6 8. 454. 454. <
7029 1 -3 45 -6 8. 454. 454. <
7030 2 -5 45 -6 7. -454. 454. <
7030 1 5 45 6 7. -454. 454. <
7031 2 5 45 6 6. 454. 1361. <
7031 1 -5 45 -6 6. 454. 1361. <
7032 2 -7 45 -6 173. -454. 907. <
7032 1 7 45 6 173. -454. 907. <
7033 2 7 45 6 172. 0. 1361. <
7033 1 -7 45 -6 172. 0. 1361. <
7034 3 -6 -46 6 425. -454. 907. <
7034 2 6 46 -6 425. -454. 907. <
7034 1 -6 46 6 425. -454. 907. <
7035 3 6 -46 -6 432. 454. 907. <
7035 2 -6 46 6 432. 454. 907. <
7035 1 6 46 -6 432. 454. 907. <
7036 3 -6 -46 4 365. -454. 454. <
7036 2 4 46 -6 365. -454. 454. <
7036 1 -4 46 6 365. -454. 454. <
7037 3 6 -46 -4 370. -907. 453. <
7037 2 -4 46 6 370. -907. 453. <
7037 1 4 46 -6 370. -907. 453. <
7038 3 -6 -46 2 132. 907. 453. <
7038 2 2 46 -6 132. 907. 453. <
7038 1 -2 46 6 132. 907. 453. <
7039 3 6 -46 -2 137. 454. 454. <
7039 2 -2 46 6 137. 454. 454. <
7039 1 2 46 -6 137. 454. 454. <
7040 3 6 -46 0 364. 0. 907. <
7040 2 0 46 6 364. 0. 907. <
7040 1 0 46 -6 364. 0. 907. <
7041 3 -6 -46 -2 135. -454. 907. <
7041 2 -2 46 -6 135. -454. 907. <
7041 1 2 46 6 135. -454. 907. <
7042 3 6 -46 2 133. 0. 454. <
7042 2 2 46 6 133. 0. 454. <
7042 1 -2 46 -6 133. 0. 454. <
7043 3 -6 -46 -4 371. -907. 907. <
7043 2 -4 46 -6 371. -907. 907. <
7043 1 4 46 6 371. -907. 907. <
7044 3 6 -46 4 364. -454. 907. <
7044 2 4 46 6 364. -454. 907. <
7044 1 -4 46 -6 364. -454. 907. <
7045 3 -6 -46 -6 429. 1361. 907. <
7045 2 -6 46 -6 429. 1361. 907. <
7045 1 6 46 6 429. 1361. 907. <
7046 3 6 -46 6 428. 907. 1361. <
7046 2 6 46 6 428. 907. 1361. <
7046 1 -6 46 -6 428. 907. 1361. <
7047 2 5 47 -6 104. -907. 907. <
7047 1 -5 47 6 104. -907. 907. <
7048 2 -5 47 6 103. 1815. 452. o
7048 1 5 47 -6 103. 1815. 452. o
7049 2 3 47 -6 86. -454. 454. <
7049 1 -3 47 6 86. -454. 454. <
7050 2 -3 47 6 85. 2268. 906. o
7050 1 3 47 -6 85. 2268. 906. o
7051 2 1 47 -6 113. 454. 454. <
7051 1 -1 47 6 113. 454. 454. <
7052 2 -1 47 6 112. 0. 907. <
7052 1 1 47 -6 112. 0. 907. <
7053 2 -1 47 -6 112. -907. 453. <
7053 1 1 47 6 112. -907. 453. <
7054 2 1 47 6 113. -454. 907. <
7054 1 -1 47 -6 113. -454. 907. <
7055 2 -3 47 -6 85. -1361. 907. <
7055 1 3 47 6 85. -1361. 907. <
7056 2 3 47 6 86. 907. 453. <
7056 1 -3 47 -6 86. 907. 453. <
7057 2 -5 47 -6 103. 907. 907. <
7057 1 5 47 6 103. 907. 907. <
7058 2 5 47 6 104. -1361. 907. <
7058 1 -5 47 -6 104. -1361. 907. <
7059 3 -6 -48 6 16524. 15424. 1364. o
7059 2 6 48 -6 16524. 15424. 1364. o
7059 1 -6 48 6 16524. 15424. 1364. o
7060 3 6 -48 -6 16508. 17693. 901. o
7060 2 -6 48 6 16508. 17693. 901. o
7060 1 6 48 -6 16508. 17693. 901. o
7061 3 -6 -48 4 26311. 26312. 907. o
7061 2 4 48 -6 26311. 26312. 907. o
7061 1 -4 48 6 26311. 26312. 907. o
7062 3 6 -48 -4 26462. 27219. 1357. o
7062 2 -4 48 6 26462. 27219. 1357. o
7062 1 4 48 -6 26462. 27219. 1357. o
7063 3 -6 -48 2 84584. 92999. 1203. o
7063 2 2 48 -6 84584. 92999. 1203. o
7063 1 -2 48 6 84584. 92999. 1203. o
7064 3 6 -48 -2 84631. 95268. 1154. o
7064 2 -2 48 6 84631. 95268. 1154. o
7064 1 2 48 -6 84631. 95268. 1154. o
7065 3 -6 -48 0 63389. 57614. 1427. o
7065 2 0 48 -6 63389. 57614. 1427. o
7065 1 0 48 6 63389. 57614. 1427. o
7066 3 6 -48 0 63454. 64419. 889. o
7066 2 0 48 6 63454. 64419. 889. o
7066 1 0 48 -6 63454. 64419. 889. o
7067 3 -6 -48 -2 84628. 74400. 1928. o
7067 2 -2 48 -6 84628. 74400. 1928. o
7067 1 2 48 6 84628. 74400. 1928. o
7068 3 6 -48 2 84587. 98897. 1065. o
7068 2 2 48 6 84587. 98897. 1065. o
7068 1 -2 48 -6 84587. 98897. 1065. o
7069 3 -6 -48 -4 26407. 25858. 911. o
7069 2 -4 48 -6 26407. 25858. 911. o
7069 1 4 48 6 26407. 25858. 911. o
7070 3 6 -48 4 26367. 29941. 1341. o
7070 2 4 48 6 26367. 29941. 1341. o
7070 1 -4 48 -6 26367. 29941. 1341. o
7071 3 -6 -48 -6 16516. 14063. 918. o
7071 2 -6 48 -6 16516. 14063. 918. o
7071 1 6 48 6 16516. 14063. 918. o
7072 2 5 49 -6 31. 454. 907. <
7072 1 -5 49 6 31. 454. 907. <
7073 2 -5 49 6 31. -907. 1361. <
7073 1 5 49 -6 31. -907. 1361. <
7074 2 3 49 -6 160. 1815. 907. <
7074 1 -3 49 6 160. 1815. 907. <
7075 2 -3 49 6 160. 2722. 906. o
7075 1 3 49 -6 160. 2722. 906. o
7076 2 1 49 -6 213. 1361. 453. o
7076 1 -1 49 6 213. 1361. 453. o
7077 2 -1 49 6 214. -454. 454. <
7077 1 1 49 -6 214. -454. 454. <
7078 2 -1 49 -6 214. 907. 453. <
7078 1 1 49 6 214. 907. 453. <
7079 2 1 49 6 213. 2268. 906. o
7079 1 -1 49 -6 213. 2268. 906. o
7080 2 -3 49 -6 160. 907. 907. <
7080 1 3 49 6 160. 907. 907. <
7081 2 3 49 6 160. 0. 907. <
7081 1 -3 49 -6 160. 0. 907. <
7082 2 -5 49 -6 31. 454. 907. <
7082 1 5 49 6 31. 454. 907. <
7083 2 5 49 6 31. -454. 907. <
7083 1 -5 49 -6 31. -454. 907. <
7084 3 -6 -50 6 6390. 4990. 910. o
7084 2 6 50 -6 6390. 4990. 910. o
7084 1 -6 50 6 6390. 4990. 910. o
7085 3 6 -50 -6 6375. 3629. 911. o
7085 2 -6 50 6 6375. 3629. 911. o
7085 1 6 50 -6 6375. 3629. 911. o
7086 3 -6 -50 4 7106. 6351. 909. o
7086 2 4 50 -6 7106. 6351. 909. o
7086 1 -4 50 6 7106. 6351. 909. o
7087 3 6 -50 -4 7181. 5444. 1363. o
7087 2 -4 50 6 7181. 5444. 1363. o
7087 1 4 50 -6 7181. 5444. 1363. o
7088 3 -6 -50 2 25676. 20868. 939. o
7088 2 2 50 -6 25676. 20868. 939. o
7088 1 -2 50 6 25676. 20868. 939. o
7089 3 6 -50 -2 25696. 25858. 906. o
7089 2 -2 50 6 25696. 25858. 906. o
7089 1 2 50 -6 25696. 25858. 906. o
7090 3 -6 -50 0 13597. 14517. 1358. o
7090 2 0 50 -6 13597. 14517. 1358. o
7090 1 0 50 6 13597. 14517. 1358. o
7091 3 6 -50 0 13663. 12249. 913. o
7091 2 0 50 6 13663. 12249. 913. o
7091 1 0 50 -6 13663. 12249. 913. o
7092 3 -6 -50 -2 25666. 13156. 1403. o
7092 2 -2 50 -6 25666. 13156. 1403. o
7092 1 2 50 6 25666. 13156. 1403. o
7093 3 6 -50 2 25707. 24497. 916. o
7093 2 2 50 6 25707. 24497. 916. o
7093 1 -2 50 -6 25707. 24497. 916. o
7094 3 -6 -50 -4 7145. 4083. 912. o
7094 2 -4 50 -6 7145. 4083. 912. o
7094 1 4 50 6 7145. 4083. 912. o
7095 3 -6 -50 -6 6382. 2268. 912. o
7095 2 -6 50 -6 6382. 2268. 912. o
7095 1 6 50 6 6382. 2268. 912. o
7096 2 5 51 -6 46. 2268. 906. o
7096 1 -5 51 6 46. 2268. 906. o
7097 2 -5 51 6 46. 1361. 1361. <
7097 1 5 51 -6 46. 1361. 1361. <
7098 2 3 51 -6 66. 1361. 453. o
7098 1 -3 51 6 66. 1361. 453. o
7099 2 -3 51 6 65. -1361. 907. <
7099 1 3 51 -6 65. -1361. 907. <
7100 2 1 51 -6 32. 907. 453. <
7100 1 -1 51 6 32. 907. 453. <
7101 2 -1 51 6 33. 907. 453. <
7101 1 1 51 -6 33. 907. 453. <
7102 2 -1 51 -6 33. 454. 454. <
7102 1 1 51 6 33. 454. 454. <
7103 2 1 51 6 32. 1361. 453. o
7103 1 -1 51 -6 32. 1361. 453. o
7104 2 -3 51 -6 65. 454. 907. <
7104 1 3 51 6 65. 454. 907. <
7105 2 3 51 6 66. 454. 907. <
7105 1 -3 51 -6 66. 454. 907. <
7106 2 -5 51 -6 46. 0. 907. <
7106 1 5 51 6 46. 0. 907. <
7107 2 5 51 6 46. 907. 907. <
7107 1 -5 51 -6 46. 907. 907. <
7108 3 -6 -52 6 355. 454. 907. <
7108 2 6 52 -6 355. 454. 907. <
7108 1 -6 52 6 355. 454. 907. <
7109 3 6 -52 -6 353. 907. 1361. <
7109 2 -6 52 6 353. 907. 1361. <
7109 1 6 52 -6 353. 907. 1361. <
7110 3 -6 -52 4 697. 2268. 907. o
7110 2 4 52 -6 697. 2268. 907. o
7110 1 -4 52 6 697. 2268. 907. o
7111 3 6 -52 -4 694. 454. 907. <
7111 2 -4 52 6 694. 454. 907. <
7111 1 4 52 -6 694. 454. 907. <
7112 3 -6 -52 2 901. 0. 907. <
7112 2 2 52 -6 901. 0. 907. <
7112 1 -2 52 6 901. 0. 907. <
7113 3 6 -52 -2 898. 0. 454. <
7113 2 -2 52 6 898. 0. 454. <
7113 1 2 52 -6 898. 0. 454. <
7114 3 -6 -52 0 1105. 454. 907. <
7114 2 0 52 -6 1105. 454. 907. <
7114 1 0 52 6 1105. 454. 907. <
7115 3 6 -52 0 1109. 907. 454. <
7115 2 0 52 6 1109. 907. 454. <
7115 1 0 52 -6 1109. 907. 454. <
7116 3 -6 -52 -2 894. 1815. 1361. <
7116 2 -2 52 -6 894. 1815. 1361. <
7116 1 2 52 6 894. 1815. 1361. <
7117 3 6 -52 2 905. 907. 907. <
7117 2 2 52 6 905. 907. 907. <
7117 1 -2 52 -6 905. 907. 907. <
7118 3 -6 -52 -4 694. 1361. 907. <
7118 2 -4 52 -6 694. 1361. 907. <
7118 1 4 52 6 694. 1361. 907. <
7119 3 6 -52 4 698. 1361. 907. <
7119 2 4 52 6 698. 1361. 907. <
7119 1 -4 52 -6 698. 1361. 907. <
7120 3 -6 -52 -6 354. -454. 907. <
7120 2 -6 52 -6 354. -454. 907. <
7120 1 6 52 6 354. -454. 907. <
7121 3 6 -52 6 354. 454. 1361. <
7121 2 6 52 6 354. 454. 1361. <
7121 1 -6 52 -6 354. 454. 1361. <
7122 2 5 53 -6 170. 1361. 907. <
7122 1 -5 53 6 170. 1361. 907. <
7123 2 -5 53 6 172. -454. 907. <
7123 1 5 53 -6 172. -454. 907. <
7124 2 3 53 -6 71. 454. 454. <
7124 1 -3 53 6 71. 454. 454. <
7125 2 -3 53 6 71. 0. 907. <
7125 1 3 53 -6 71. 0. 907. <
7126 2 1 53 -6 96. 1815. 452. o
7126 1 -1 53 6 96. 1815. 452. o
7127 2 -1 53 6 97. 0. 907. <
7127 1 1 53 -6 97. 0. 907. <
7128 2 -1 53 -6 97. -454. 907. <
7128 1 1 53 6 97. -454. 907. <
7129 2 1 53 6 96. 0. 454. <
7129 1 -1 53 -6 96. 0. 454. <
7130 2 -3 53 -6 71. 907. 453. <
7130 1 3 53 6 71. 907. 453. <
7131 2 3 53 6 71. 0. 907. <
7131 1 -3 53 -6 71. 0. 907. <
7132 2 -5 53 -6 172. 454. 907. <
7132 1 5 53 6 172. 454. 907. <
7133 2 5 53 6 170. 907. 1361. <
7133 1 -5 53 -6 170. 907. 1361. <
7134 3 -6 -54 6 207. -1361. 907. <
7134 2 6 54 -6 207. -1361. 907. <
7134 1 -6 54 6 207. -1361. 907. <
7135 3 6 -54 -6 205. 0. 1361. <
7135 2 -6 54 6 205. 0. 1361. <
7135 1 6 54 -6 205. 0. 1361. <
7136 3 -6 -54 4 479. 907. 907. <
7136 2 4 54 -6 479. 907. 907. <
7136 1 -4 54 6 479. 907. 907. <
7137 3 6 -54 -4 477. -1361. 907. <
7137 2 -4 54 6 477. -1361. 907. <
7137 1 4 54 -6 477. -1361. 907. <
7138 3 -6 -54 2 510. 0. 454. <
7138 2 2 54 -6 510. 0. 454. <
7138 1 -2 54 6 510. 0. 454. <
7139 3 6 -54 -2 497. -454. 1361. <
7139 2 -2 54 6 497. -454. 1361. <
7139 1 2 54 -6 497. -454. 1361. <
7140 3 -6 -54 0 360. 1361. 453. o
7140 2 0 54 -6 360. 1361. 453. o
7140 1 0 54 6 360. 1361. 453. o
7141 3 6 -54 0 362. 907. 453. <
7141 2 0 54 6 362. 907. 453. <
7141 1 0 54 -6 362. 907. 453. <
7142 3 -6 -54 -2 504. -454. 1361. <
7142 2 -2 54 -6 504. -454. 1361. <
7142 1 2 54 6 504. -454. 1361. <
7143 3 6 -54 2 504. 454. 454. <
7143 2 2 54 6 504. 454. 454. <
7143 1 -2 54 -6 504. 454. 454. <
7144 3 -6 -54 -4 476. -907. 907. <
7144 2 -4 54 -6 476. -907. 907. <
7144 1 4 54 6 476. -907. 907. <
7145 3 6 -54 4 480. 0. 907. <
7145 2 4 54 6 480. 0. 907. <
7145 1 -4 54 -6 480. 0. 907. <
7146 3 -6 -54 -6 206. 1361. 907. <
7146 2 -6 54 -6 206. 1361. 907. <
7146 1 6 54 6 206. 1361. 907. <
7147 3 6 -54 6 206. -454. 1361. <
7147 2 6 54 6 206. -454. 1361. <
7147 1 -6 54 -6 206. -454. 1361. <
7148 2 5 55 -6 1447. 3629. 905. o
7148 1 -5 55 6 1447. 3629. 905. o
7149 2 -5 55 6 1445. 1815. 1361. <
7149 1 5 55 -6 1445. 1815. 1361. <
7150 2 3 55 -6 1473. 1815. 453. o
7150 1 -3 55 6 1473. 1815. 453. o
7151 2 -3 55 6 1470. 3629. 1360. o
7151 1 3 55 -6 1470. 3629. 1360. o
7152 2 1 55 -6 9256. 9980. 905. o
7152 1 -1 55 6 9256. 9980. 905. o
7153 2 -1 55 6 9254. 11341. 1357. o
7153 1 1 55 -6 9254. 11341. 1357. o
7154 2 -1 55 -6 9254. 6351. 1365. o
7154 1 1 55 6 9254. 6351. 1365. o
7155 2 1 55 6 9256. 10888. 902. o
7155 1 -1 55 -6 9256. 10888. 902. o
7156 2 -3 55 -6 1470. 1361. 907. <
7156 1 3 55 6 1470. 1361. 907. <
7157 2 3 55 6 1473. 2722. 452. o
7157 1 -3 55 -6 1473. 2722. 452. o
7158 2 -5 55 -6 1445. 2722. 906. o
7158 1 5 55 6 1445. 2722. 906. o
7159 2 5 55 6 1447. 2722. 1360. <
7159 1 -5 55 -6 1447. 2722. 1360. <
7160 3 -6 -56 6 168. 907. 907. <
7160 2 6 56 -6 168. 907. 907. <
7160 1 -6 56 6 168. 907. 907. <
7161 3 6 -56 -6 170. -2722. 906. <
7161 2 -6 56 6 170. -2722. 906. <
7161 1 6 56 -6 170. -2722. 906. <
7162 3 -6 -56 4 121. 907. 1361. <
7162 2 4 56 -6 121. 907. 1361. <
7162 1 -4 56 6 121. 907. 1361. <
7163 3 6 -56 -4 118. 907. 453. <
7163 2 -4 56 6 118. 907. 453. <
7163 1 4 56 -6 118. 907. 453. <
7164 3 -6 -56 2 149. 907. 453. <
7164 2 2 56 -6 149. 907. 453. <
7164 1 -2 56 6 149. 907. 453. <
7165 3 6 -56 -2 154. 1815. 1361. <
7165 2 -2 56 6 154. 1815. 1361. <
7165 1 2 56 -6 154. 1815. 1361. <
7166 3 -6 -56 0 71. 454. 454. <
7166 2 0 56 -6 71. 454. 454. <
7166 1 0 56 6 71. 454. 454. <
7167 3 6 -56 0 70. 907. 453. <
7167 2 0 56 6 70. 907. 453. <
7167 1 0 56 -6 70. 907. 453. <
7168 3 -6 -56 -2 150. -1361. 1361. <
7168 2 -2 56 -6 150. -1361. 1361. <
7168 1 2 56 6 150. -1361. 1361. <
7169 3 6 -56 2 152. 907. 453. <
7169 2 2 56 6 152. 907. 453. <
7169 1 -2 56 -6 152. 907. 453. <
7170 3 -6 -56 -4 120. 907. 907. <
7170 2 -4 56 -6 120. 907. 907. <
7170 1 4 56 6 120. 907. 907. <
7171 3 6 -56 4 119. 907. 1361. <
7171 2 4 56 6 119. 907. 1361. <
7171 1 -4 56 -6 119. 907. 1361. <
7172 3 -6 -56 -6 169. 907. 907. <
7172 2 -6 56 -6 169. 907. 907. <
7172 1 6 56 6 169. 907. 907. <
7173 3 6 -56 6 169. 454. 1361. <
7173 2 6 56 6 169. 454. 1361. <
7173 1 -6 56 -6 169. 454. 1361. <
7174 2 5 57 -6 119. 1361. 907. <
7174 1 -5 57 6 119. 1361. 907. <
7175 2 -5 57 6 118. 1361. 1361. <
7175 1 5 57 -6 118. 1361. 1361. <
7176 2 3 57 -6 231. 2268. 452. o
7176 1 -3 57 6 231. 2268. 452. o
7177 2 -3 57 6 230. 907. 1361. <
7177 1 3 57 -6 230. 907. 1361. <
7178 2 1 57 -6 549. 907. 453. <
7178 1 -1 57 6 549. 907. 453. <
7179 2 -1 57 6 549. 1815. 907. <
7179 1 1 57 -6 549. 1815. 907. <
7180 2 -1 57 -6 549. 1361. 1361. <
7180 1 1 57 6 549. 1361. 1361. <
7181 2 1 57 6 549. 1815. 453. o
7181 1 -1 57 -6 549. 1815. 453. o
7182 2 -3 57 -6 230. 907. 907. <
7182 1 3 57 6 230. 907. 907. <
7183 2 3 57 6 231. 1361. 907. <
7183 1 -3 57 -6 231. 1361. 907. <
7184 2 -5 57 -6 118. 907. 907. <
7184 1 5 57 6 118. 907. 907. <
7185 2 5 57 6 119. 1815. 1361. <
7185 1 -5 57 -6 119. 1815. 1361. <
7186 3 -6 -58 4 526. 0. 1361. <
7186 2 4 58 -6 526. 0. 1361. <
7186 1 -4 58 6 526. 0. 1361. <
7187 3 6 -58 -4 523. 1361. 907. <
7187 2 -4 58 6 523. 1361. 907. <
7187 1 4 58 -6 523. 1361. 907. <
7188 3 -6 -58 2 774. 907. 454. <
7188 2 2 58 -6 774. 907. 454. <
7188 1 -2 58 6 774. 907. 454. <
7189 3 6 -58 -2 773. -454. 1361. <
7189 2 -2 58 6 773. -454. 1361. <
7189 1 2 58 -6 773. -454. 1361. <
7190 3 -6 -58 0 989. 0. 454. <
7190 2 0 58 -6 989. 0. 454. <
7190 1 0 58 6 989. 0. 454. <
7191 3 6 -58 0 990. 1815. 453. o
7191 2 0 58 6 990. 1815. 453. o
7191 1 0 58 -6 990. 1815. 453. o
7192 3 -6 -58 -2 771. 454. 907. <
7192 2 -2 58 -6 771. 454. 907. <
7192 1 2 58 6 771. 454. 907. <
7193 3 6 -58 2 776. 907. 907. <
7193 2 2 58 6 776. 907. 907. <
7193 1 -2 58 -6 776. 907. 907. <
7194 3 -6 -58 -4 525. 1361. 907. <
7194 2 -4 58 -6 525. 1361. 907. <
7194 1 4 58 6 525. 1361. 907. <
7195 3 6 -58 4 525. 907. 1361. <
7195 2 4 58 6 525. 907. 1361. <
7195 1 -4 58 -6 525. 907. 1361. <
7196 2 5 59 -6 69. 1815. 907. <
7196 1 -5 59 6 69. 1815. 907. <
7197 2 -5 59 6 69. 1815. 1361. <
7197 1 5 59 -6 69. 1815. 1361. <
7198 2 3 59 -6 79. 1815. 907. <
7198 1 -3 59 6 79. 1815. 907. <
7199 2 -3 59 6 80. 454. 1361. <
7199 1 3 59 -6 80. 454. 1361. <
7200 2 1 59 -6 122. 2268. 452. o
7200 1 -1 59 6 122. 2268. 452. o
7201 2 -1 59 6 122. 454. 907. <
7201 1 1 59 -6 122. 454. 907. <
7202 2 -1 59 -6 122. 0. 454. <
7202 1 1 59 6 122. 0. 454. <
7203 2 1 59 6 122. 2722. 906. o
7203 1 -1 59 -6 122. 2722. 906. o
7204 2 -3 59 -6 80. 907. 907. <
7204 1 3 59 6 80. 907. 907. <
7205 2 3 59 6 79. 454. 1361. <
7205 1 -3 59 -6 79. 454. 1361. <
7206 2 -5 59 -6 69. 907. 907. <
7206 1 5 59 6 69. 907. 907. <
7207 2 5 59 6 69. 1361. 907. <
7207 1 -5 59 -6 69. 1361. 907. <
7208 3 -6 -60 4 11983. 11341. 909. o
7208 2 4 60 -6 11983. 11341. 909. o
7208 1 -4 60 6 11983. 11341. 909. o
7209 3 6 -60 -4 11951. 11795. 908. o
7209 2 -4 60 6 11951. 11795. 908. o
7209 1 4 60 -6 11951. 11795. 908. o
7210 3 -6 -60 2 23330. 19054. 933. o
7210 2 2 60 -6 23330. 19054. 933. o
7210 1 -2 60 6 23330. 19054. 933. o
7211 3 6 -60 -2 23275. 24497. 899. o
7211 2 -2 60 6 23275. 24497. 899. o
7211 1 2 60 -6 23275. 24497. 899. o
7212 3 -6 -60 0 25566. 26766. 898. o
7212 2 0 60 -6 25566. 26766. 898. o
7212 1 0 60 6 25566. 26766. 898. o
7213 3 6 -60 0 25563. 29941. 1336. o
7213 2 0 60 6 25563. 29941. 1336. o
7213 1 0 60 -6 25563. 29941. 1336. o
7214 3 -6 -60 -2 23286. 22229. 914. o
7214 2 -2 60 -6 23286. 22229. 914. o
7214 1 2 60 6 23286. 22229. 914. o
7215 3 6 -60 2 23318. 24497. 899. o
7215 2 2 60 6 23318. 24497. 899. o
7215 1 -2 60 -6 23318. 24497. 899. o
7216 3 -6 -60 -4 11958. 4083. 923. o
7216 2 -4 60 -6 11958. 4083. 923. o
7216 1 4 60 6 11958. 4083. 923. o
7217 3 6 -60 4 11975. 14517. 1354. o
7217 2 4 60 6 11975. 14517. 1354. o
7217 1 -4 60 -6 11975. 14517. 1354. o
7218 2 5 61 -6 5. -907. 907. <
7218 1 -5 61 6 5. -907. 907. <
7219 2 -5 61 6 5. 454. 907. <
7219 1 5 61 -6 5. 454. 907. <
7220 2 3 61 -6 26. 907. 907. <
7220 1 -3 61 6 26. 907. 907. <
7221 2 -3 61 6 26. 1361. 907. <
7221 1 3 61 -6 26. 1361. 907. <
7222 2 1 61 -6 20. -454. 454. <
7222 1 -1 61 6 20. -454. 454. <
7223 2 -1 61 6 20. 907. 907. <
7223 1 1 61 -6 20. 907. 907. <
7224 2 -1 61 -6 20. 0. 1361. <
7224 1 1 61 6 20. 0. 1361. <
7225 2 1 61 6 20. 907. 453. <
7225 1 -1 61 -6 20. 907. 453. <
7226 2 -3 61 -6 26. 907. 907. <
7226 1 3 61 6 26. 907. 907. <
7227 2 3 61 6 26. 907. 907. <
7227 1 -3 61 -6 26. 907. 907. <
7228 2 -5 61 -6 5. 454. 907. <
7228 1 5 61 6 5. 454. 907. <
7229 2 5 61 6 5. -454. 1361. <
7229 1 -5 61 -6 5. -454. 1361. <
7230 3 -6 -62 4 5300. 9073. 899. o
7230 2 4 62 -6 5300. 9073. 899. o
7230 1 -4 62 6 5300. 9073. 899. o
7231 3 6 -62 -4 5294. 4990. 908. o
7231 2 -4 62 6 5294. 4990. 908. o
7231 1 4 62 -6 5294. 4990. 908. o
7232 3 -6 -62 2 11823. 12249. 906. o
7232 2 2 62 -6 11823. 12249. 906. o
7232 1 -2 62 6 11823. 12249. 906. o
7233 3 6 -62 -2 11788. 16332. 1348. o
7233 2 -2 62 6 11788. 16332. 1348. o
7233 1 2 62 -6 11788. 16332. 1348. o
7234 3 -6 -62 0 12633. 11341. 912. o
7234 2 0 62 -6 12633. 11341. 912. o
7234 1 0 62 6 12633. 11341. 912. o
7235 3 6 -62 0 12608. 13156. 1360. o
7235 2 0 62 6 12608. 13156. 1360. o
7235 1 0 62 -6 12608. 13156. 1360. o
7236 3 -6 -62 -2 11814. 13156. 902. o
7236 2 -2 62 -6 11814. 13156. 902. o
7236 1 2 62 6 11814. 13156. 902. o
7237 3 6 -62 2 11797. 11341. 1362. o
7237 2 2 62 6 11797. 11341. 1362. o
7237 1 -2 62 -6 11797. 11341. 1362. o
7238 3 -6 -62 -4 5301. 4537. 908. o
7238 2 -4 62 -6 5301. 4537. 908. o
7238 1 4 62 6 5301. 4537. 908. o
7239 3 6 -62 4 5293. 6805. 1359. o
7239 2 4 62 6 5293. 6805. 1359. o
7239 1 -4 62 -6 5293. 6805. 1359. o
7240 2 5 63 -6 0. 907. 907. <
7240 1 -5 63 6 0. 907. 907. <
7241 2 -5 63 6 0. 1815. 907. <
7241 1 5 63 -6 0. 1815. 907. <
7242 2 3 63 -6 23. 907. 907. <
7242 1 -3 63 6 23. 907. 907. <
7243 2 -3 63 6 22. 454. 907. <
7243 1 3 63 -6 22. 454. 907. <
7244 2 1 63 -6 0. 907. 453. <
7244 1 -1 63 6 0. 907. 453. <
7245 2 -1 63 6 0. 1815. 907. <
7245 1 1 63 -6 0. 1815. 907. <
7246 2 -1 63 -6 0. -1361. 1361. <
7246 1 1 63 6 0. -1361. 1361. <
7247 2 1 63 6 0. 454. 454. <
7247 1 -1 63 -6 0. 454. 454. <
7248 2 -3 63 -6 22. -454. 907. <
7248 1 3 63 6 22. -454. 907. <
7249 2 3 63 6 23. 907. 1361. <
7249 1 -3 63 -6 23. 907. 1361. <
7250 2 -5 63 -6 0. 454. 907. <
7250 1 5 63 6 0. 454. 907. <
7251 2 5 63 6 0. 1361. 1361. <
7251 1 -5 63 -6 0. 1361. 1361. <
7252 3 -6 -64 4 614. -907. 907. <
7252 2 4 64 -6 614. -907. 907. <
7252 1 -4 64 6 614. -907. 907. <
7253 3 6 -64 -4 614. 907. 907. <
7253 2 -4 64 6 614. 907. 907. <
7253 1 4 64 -6 614. 907. 907. <
7254 3 -6 -64 2 787. 907. 907. <
7254 2 2 64 -6 787. 907. 907. <
7254 1 -2 64 6 787. 907. 907. <
7255 3 6 -64 -2 789. 4083. 1359. o
7255 2 -2 64 6 789. 4083. 1359. o
7255 1 2 64 -6 789. 4083. 1359. o
7256 3 -6 -64 0 1631. 907. 908. <
7256 2 0 64 -6 1631. 907. 908. <
7256 1 0 64 6 1631. 907. 908. <
7257 3 6 -64 0 1628. 0. 908. <
7257 2 0 64 6 1628. 0. 908. <
7257 1 0 64 -6 1628. 0. 908. <
7258 3 -6 -64 -2 790. 454. 1361. <
7258 2 -2 64 -6 790. 454. 1361. <
7258 1 2 64 6 790. 454. 1361. <
7259 3 6 -64 2 786. 1815. 1361. <
7259 2 2 64 6 786. 1815. 1361. <
7259 1 -2 64 -6 786. 1815. 1361. <
7260 3 -6 -64 -4 615. -907. 907. <
7260 2 -4 64 -6 615. -907. 907. <
7260 1 4 64 6 615. -907. 907. <
7261 3 6 -64 4 613. 1361. 1361. <
7261 2 4 64 6 613. 1361. 1361. <
7261 1 -4 64 -6 613. 1361. 1361. <
7262 2 3 65 -6 1. 907. 907. <
7262 1 -3 65 6 1. 907. 907. <
7263 2 -3 65 6 1. -454. 1361. <
7263 1 3 65 -6 1. -454. 1361. <
7264 2 1 65 -6 18. 454. 454. <
7264 1 -1 65 6 18. 454. 454. <
7265 2 -1 65 6 19. 0. 907. <
7265 1 1 65 -6 19. 0. 907. <
7266 2 -1 65 -6 19. 454. 907. <
7266 1 1 65 6 19. 454. 907. <
7267 2 1 65 6 18. 0. 907. <
7267 1 -1 65 -6 18. 0. 907. <
7268 2 -3 65 -6 1. -907. 907. <
7268 1 3 65 6 1. -907. 907. <
7269 2 3 65 6 1. 1361. 907. <
7269 1 -3 65 -6 1. 1361. 907. <
7270 3 -6 -66 4 233. 0. 907. <
7270 2 4 66 -6 233. 0. 907. <
7270 1 -4 66 6 233. 0. 907. <
7271 3 6 -66 -4 235. 0. 907. <
7271 2 -4 66 6 235. 0. 907. <
7271 1 4 66 -6 235. 0. 907. <
7272 3 -6 -66 2 627. 0. 907. <
7272 2 2 66 -6 627. 0. 907. <
7272 1 -2 66 6 627. 0. 907. <
7273 3 6 -66 -2 629. -454. 907. <
7273 2 -2 66 6 629. -454. 907. <
7273 1 2 66 -6 629. -454. 907. <
7274 3 -6 -66 0 945. 1815. 907. <
7274 2 0 66 -6 945. 1815. 907. <
7274 1 0 66 6 945. 1815. 907. <
7275 3 6 -66 0 947. 907. 907. <
7275 2 0 66 6 947. 907. 907. <
7275 1 0 66 -6 947. 907. 907. <
7276 3 -6 -66 -2 629. 1815. 907. <
7276 2 -2 66 -6 629. 1815. 907. <
7276 1 2 66 6 629. 1815. 907. <
7277 3 6 -66 2 627. 1361. 1361. <
7277 2 2 66 6 627. 1361. 1361. <
7277 1 -2 66 -6 627. 1361. 1361. <
7278 3 -6 -66 -4 234. 454. 907. <
7278 2 -4 66 -6 234. 454. 907. <
7278 1 4 66 6 234. 454. 907. <
7279 3 6 -66 4 234. -907. 907. <
7279 2 4 66 6 234. -907. 907. <
7279 1 -4 66 -6 234. -907. 907. <
7280 2 3 67 -6 1517. 4083. 905. o
7280 1 -3 67 6 1517. 4083. 905. o
7281 2 -3 67 6 1518. 2268. 1814. <
7281 1 3 67 -6 1518. 2268. 1814. <
7282 2 1 67 -6 2503. 2722. 907. o
7282 1 -1 67 6 2503. 2722. 907. o
7283 2 -1 67 6 2503. 1815. 908. <
7283 1 1 67 -6 2503. 1815. 908. <
7284 2 -1 67 -6 2503. 2268. 907. o
7284 1 1 67 6 2503. 2268. 907. o
7285 2 1 67 6 2503. 1815. 1361. <
7285 1 -1 67 -6 2503. 1815. 1361. <
7286 2 -3 67 -6 1518. 1361. 907. <
7286 1 3 67 6 1518. 1361. 907. <
7287 2 3 67 6 1517. 1815. 1361. <
7287 1 -3 67 -6 1517. 1815. 1361. <
7288 3 -6 -68 4 84. -907. 907. <
7288 2 4 68 -6 84. -907. 907. <
7288 1 -4 68 6 84. -907. 907. <
7289 3 6 -68 -4 83. -907. 907. <
7289 2 -4 68 6 83. -907. 907. <
7289 1 4 68 -6 83. -907. 907. <
7290 3 -6 -68 2 231. 907. 453. <
7290 2 2 68 -6 231. 907. 453. <
7290 1 -2 68 6 231. 907. 453. <
7291 3 6 -68 -2 231. 1815. 907. <
7291 2 -2 68 6 231. 1815. 907. <
7291 1 2 68 -6 231. 1815. 907. <
7292 3 -6 -68 0 229. 907. 907. <
7292 2 0 68 -6 229. 907. 907. <
7292 1 0 68 6 229. 907. 907. <
7293 3 6 -68 0 228. 2268. 1360. <
7293 2 0 68 6 228. 2268. 1360. <
7293 1 0 68 -6 228. 2268. 1360. <
7294 3 -6 -68 -2 231. 454. 907. <
7294 2 -2 68 -6 231. 454. 907. <
7294 1 2 68 6 231. 454. 907. <
7295 3 6 -68 2 231. 2722. 906. o
7295 2 2 68 6 231. 2722. 906. o
7295 1 -2 68 -6 231. 2722. 906. o
7296 3 -6 -68 -4 83. 3629. 1359. o
7296 2 -4 68 -6 83. 3629. 1359. o
7296 1 4 68 6 83. 3629. 1359. o
7297 3 6 -68 4 83. -907. 1361. <
7297 2 4 68 6 83. -907. 1361. <
7297 1 -4 68 -6 83. -907. 1361. <
7298 2 3 69 -6 135. 454. 907. <
7298 1 -3 69 6 135. 454. 907. <
7299 2 -3 69 6 136. 907. 907. <
7299 1 3 69 -6 136. 907. 907. <
7300 2 1 69 -6 239. 907. 907. <
7300 1 -1 69 6 239. 907. 907. <
7301 2 -1 69 6 239. 1361. 1361. <
7301 1 1 69 -6 239. 1361. 1361. <
7302 2 -1 69 -6 239. 907. 907. <
7302 1 1 69 6 239. 907. 907. <
7303 2 1 69 6 239. -1361. 907. <
7303 1 -1 69 -6 239. -1361. 907. <
7304 2 -3 69 -6 136. 907. 907. <
7304 1 3 69 6 136. 907. 907. <
7305 2 3 69 6 135. 1361. 907. <
7305 1 -3 69 -6 135. 1361. 907. <
7306 3 -6 -70 2 166. 1361. 907. <
7306 2 2 70 -6 166. 1361. 907. <
7306 1 -2 70 6 166. 1361. 907. <
7307 3 6 -70 -2 167. 0. 1361. <
7307 2 -2 70 6 167. 0. 1361. <
7307 1 2 70 -6 167. 0. 1361. <
7308 3 -6 -70 0 265. 454. 907. <
7308 2 0 70 -6 265. 454. 907. <
7308 1 0 70 6 265. 454. 907. <
7309 3 6 -70 0 264. -454. 1361. <
7309 2 0 70 6 264. -454. 1361. <
7309 1 0 70 -6 264. -454. 1361. <
7310 3 -6 -70 -2 167. 907. 907. <
7310 2 -2 70 -6 167. 907. 907. <
7310 1 2 70 6 167. 907. 907. <
7311 3 6 -70 2 166. 0. 907. <
7311 2 2 70 6 166. 0. 907. <
7311 1 -2 70 -6 166. 0. 907. <
7312 2 3 71 -6 15. 1361. 907. <
7312 1 -3 71 6 15. 1361. 907. <
7313 2 -3 71 6 15. 4990. 1812. o
7313 1 3 71 -6 15. 4990. 1812. o
7314 2 1 71 -6 31. 0. 907. <
7314 1 -1 71 6 31. 0. 907. <
7315 2 -1 71 6 31. -1815. 1361. <
7315 1 1 71 -6 31. -1815. 1361. <
7316 2 -1 71 -6 31. 907. 907. <
7316 1 1 71 6 31. 907. 907. <
7317 2 1 71 6 31. 1361. 1361. <
7317 1 -1 71 -6 31. 1361. 1361. <
7318 2 -3 71 -6 15. 907. 907. <
7318 1 3 71 6 15. 907. 907. <
7319 2 3 71 6 15. 454. 1361. <
7319 1 -3 71 -6 15. 454. 1361. <
7320 3 -6 -72 2 7706. 10434. 900. o
7320 2 2 72 -6 7706. 10434. 900. o
7320 1 -2 72 6 7706. 10434. 900. o
7321 3 6 -72 -2 7724. 8619. 1814. o
7321 2 -2 72 6 7724. 8619. 1814. o
7321 1 2 72 -6 7724. 8619. 1814. o
7322 3 -6 -72 0 10409. 6805. 916. o
7322 2 0 72 -6 10409. 6805. 916. o
7322 1 0 72 6 10409. 6805. 916. o
7323 3 6 -72 0 10408. 14971. 1349. o
7323 2 0 72 6 10408. 14971. 1349. o
7323 1 0 72 -6 10408. 14971. 1349. o
7324 3 -6 -72 -2 7722. 3176. 914. o
7324 2 -2 72 -6 7722. 3176. 914. o
7324 1 2 72 6 7722. 3176. 914. o
7325 3 6 -72 2 7708. 10888. 1810. o
7325 2 2 72 6 7708. 10888. 1810. o
7325 1 -2 72 -6 7708. 10888. 1810. o
7326 2 1 73 -6 23. 907. 907. <
7326 1 -1 73 6 23. 907. 907. <
7327 2 -1 73 6 23. -907. 1361. <
7327 1 1 73 -6 23. -907. 1361. <
7328 2 -1 73 -6 23. 1361. 907. <
7328 1 1 73 6 23. 1361. 907. <
7329 2 1 73 6 23. -1361. 1361. <
7329 1 -1 73 -6 23. -1361. 1361. <
7330 3 -6 -74 2 3213. 3629. 907. o
7330 2 2 74 -6 3213. 3629. 907. o
7330 1 -2 74 6 3213. 3629. 907. o
7331 3 6 -74 -2 3222. 2722. 1815. <
7331 2 -2 74 6 3222. 2722. 1815. <
7331 1 2 74 -6 3222. 2722. 1815. <
7332 3 -6 -74 0 3950. 2722. 908. o
7332 2 0 74 -6 3950. 2722. 908. o
7332 1 0 74 6 3950. 2722. 908. o
7333 3 6 -74 0 3963. 4083. 1361. o
7333 2 0 74 6 3963. 4083. 1361. o
7333 1 0 74 -6 3963. 4083. 1361. o
7334 3 -6 -74 -2 3213. 1815. 908. <
7334 2 -2 74 -6 3213. 1815. 908. <
7334 1 2 74 6 3213. 1815. 908. <
7335 3 6 -74 2 3222. 5898. 1358. o
7335 2 2 74 6 3222. 5898. 1358. o
7335 1 -2 74 -6 3222. 5898. 1358. o
7336 2 1 75 -6 19. 907. 907. <
7336 1 -1 75 6 19. 907. 907. <
7337 2 -1 75 6 19. 907. 1361. <
7337 1 1 75 -6 19. 907. 1361. <
7338 2 -1 75 -6 19. 1361. 907. <
7338 1 1 75 6 19. 1361. 907. <
7339 2 1 75 6 19. 907. 1361. <
7339 1 -1 75 -6 19. 907. 1361. <
7340 3 -6 -76 0 57. 0. 907. <
7340 2 0 76 -6 57. 0. 907. <
7340 1 0 76 6 57. 0. 907. <
7341 3 6 -76 0 58. -1361. 1361. <
7341 2 0 76 6 58. -1361. 1361. <
7341 1 0 76 -6 58. -1361. 1361. <
7342 3 -7 -1 7 3115. 2722. 454. o
7342 2 7 1 -7 3115. 2722. 454. o
7342 1 -7 1 7 3115. 2722. 454. o
7343 3 7 -1 -7 3531. 3176. 908. o
7343 2 -7 1 7 3531. 3176. 908. o
7343 1 7 1 -7 3531. 3176. 908. o
7344 3 -7 -1 -1 210739. 220023. 1490. o
7344 2 -1 1 -7 210739. 220023. 1490. o
7344 1 1 1 7 210739. 220023. 1490. o
7345 3 -7 -1 -3 47296. 53078. 1302. o
7345 2 -3 1 -7 47296. 53078. 1302. o
7345 1 3 1 7 47296. 53078. 1302. o
7346 3 7 -1 7 3311. 1361. 908. <
7346 2 7 1 7 3311. 1361. 908. <
7346 1 -7 1 -7 3311. 1361. 908. <
7347 2 8 2 -7 183. 0. 907. <
7347 1 -8 2 7 183. 0. 907. <
7348 2 -8 2 7 183. -454. 454. <
7348 1 8 2 -7 183. -454. 454. <
7349 2 6 2 -7 345. 0. 454. <
7349 1 -6 2 7 345. 0. 454. <
7350 2 -6 2 7 344. 454. 907. <
7350 1 6 2 -7 344. 454. 907. <
7351 2 4 2 -7 256. 454. 907. <
7351 1 -4 2 7 256. 454. 907. <
7352 2 0 2 -7 3. -1361. 907. <
7352 1 0 2 7 3. -1361. 907. <
7353 2 0 2 7 3. 0. 454. <
7353 1 0 2 -7 3. 0. 454. <
7354 2 -2 2 -7 182. 1361. 907. <
7354 1 2 2 7 182. 1361. 907. <
7355 2 4 2 7 256. 907. 453. <
7355 1 -4 2 -7 256. 907. 453. <
7356 2 -6 2 -7 344. 454. 454. <
7356 1 6 2 7 344. 454. 454. <
7357 2 6 2 7 345. 0. 454. <
7357 1 -6 2 -7 345. 0. 454. <
7358 2 -8 2 -7 183. 907. 453. <
7358 1 8 2 7 183. 907. 453. <
7359 2 8 2 7 183. 907. 907. <
7359 1 -8 2 -7 183. 907. 907. <
7360 3 -7 -3 7 201. 454. 454. <
7360 2 7 3 -7 201. 454. 454. <
7360 1 -7 3 7 201. 454. 454. <
7361 3 7 -3 -7 231. -907. 907. <
7361 2 -7 3 7 231. -907. 907. <
7361 1 7 3 -7 231. -907. 907. <
7362 3 -7 -3 3 3427. 1815. 456. o
7362 2 3 3 -7 3427. 1815. 456. o
7362 1 -3 3 7 3427. 1815. 456. o
7363 3 7 -3 -3 3563. 2722. 908. o
7363 2 -3 3 7 3563. 2722. 908. o
7363 1 3 3 -7 3563. 2722. 908. o
7364 3 7 -3 -1 8940. 12702. 895. o
7364 2 -1 3 7 8940. 12702. 895. o
7364 1 1 3 -7 8940. 12702. 895. o
7365 3 -7 -3 -7 217. 454. 454. <
7365 2 -7 3 -7 217. 454. 454. <
7365 1 7 3 7 217. 454. 454. <
7366 3 7 -3 7 215. 0. 454. <
7366 2 7 3 7 215. 0. 454. <
7366 1 -7 3 -7 215. 0. 454. <
7367 2 8 4 -7 160. 907. 907. <
7367 1 -8 4 7 160. 907. 907. <
7368 2 -8 4 7 159. 907. 453. <
7368 1 8 4 -7 159. 907. 453. <
7369 2 6 4 -7 104. 0. 454. <
7369 1 -6 4 7 104. 0. 454. <
7370 2 -6 4 7 109. 0. 907. <
7370 1 6 4 -7 109. 0. 907. <
7371 2 -2 4 7 36. 454. 907. <
7371 1 2 4 -7 36. 454. 907. <
7372 2 0 4 7 181. 3176. 905. o
7372 1 0 4 -7 181. 3176. 905. o
7373 2 2 4 7 34. -454. 454. <
7373 1 -2 4 -7 34. -454. 454. <
7374 2 -4 4 -7 720. 454. 907. <
7374 1 4 4 7 720. 454. 907. <
7375 2 4 4 7 717. -454. 454. <
7375 1 -4 4 -7 717. -454. 454. <
7376 2 -6 4 -7 109. -454. 454. <
7376 1 6 4 7 109. -454. 454. <
7377 2 6 4 7 104. 907. 453. <
7377 1 -6 4 -7 104. 907. 453. <
7378 2 -8 4 -7 159. -907. 453. <
7378 1 8 4 7 159. -907. 453. <
7379 2 8 4 7 160. 1361. 907. <
7379 1 -8 4 -7 160. 1361. 907. <
7380 3 -7 -5 7 169. 907. 907. <
7380 2 7 5 -7 169. 907. 907. <
7380 1 -7 5 7 169. 907. 907. <
7381 3 7 -5 -7 185. 1361. 907. <
7381 2 -7 5 7 185. 1361. 907. <
7381 1 7 5 -7 185. 1361. 907. <
7382 3 -7 -5 5 1287. 1815. 907. <
7382 2 5 5 -7 1287. 1815. 907. <
7382 1 -5 5 7 1287. 1815. 907. <
7383 3 7 -5 -1 1065. 1815. 907. <
7383 2 -1 5 7 1065. 1815. 907. <
7383 1 1 5 -7 1065. 1815. 907. <
7384 3 7 -5 3 131. 454. 907. <
7384 2 3 5 7 131. 454. 907. <
7384 1 -3 5 -7 131. 454. 907. <
7385 3 -7 -5 -5 1273. 3176. 906. o
7385 2 -5 5 -7 1273. 3176. 906. o
7385 1 5 5 7 1273. 3176. 906. o
7386 3 -7 -5 -7 178. 1361. 453. o
7386 2 -7 5 -7 178. 1361. 453. o
7386 1 7 5 7 178. 1361. 453. o
7387 3 7 -5 7 177. 907. 907. <
7387 2 7 5 7 177. 907. 907. <
7387 1 -7 5 -7 177. 907. 907. <
7388 2 8 6 -7 240. -454. 907. <
7388 1 -8 6 7 240. -454. 907. <
7389 2 -8 6 7 241. 907. 453. <
7389 1 8 6 -7 241. 907. 453. <
7390 2 6 6 -7 237. -454. 454. <
7390 1 -6 6 7 237. -454. 454. <
7391 2 -6 6 7 236. 907. 907. <
7391 1 6 6 -7 236. 907. 907. <
7392 2 -4 6 7 9213. 12249. 897. o
7392 1 4 6 -7 9213. 12249. 897. o
7393 2 -4 6 -7 9213. 9980. 905. o
7393 1 4 6 7 9213. 9980. 905. o
7394 2 4 6 7 9210. 11795. 899. o
7394 1 -4 6 -7 9210. 11795. 899. o
7395 2 -6 6 -7 236. 907. 453. <
7395 1 6 6 7 236. 907. 453. <
7396 2 6 6 7 237. 907. 453. <
7396 1 -6 6 -7 237. 907. 453. <
7397 2 -8 6 -7 241. 907. 453. <
7397 1 8 6 7 241. 907. 453. <
7398 2 8 6 7 240. 1815. 907. <
7398 1 -8 6 -7 240. 1815. 907. <
7399 3 -7 -7 7 139. 454. 454. <
7399 2 7 7 -7 139. 454. 454. <
7399 1 -7 7 7 139. 454. 454. <
7400 3 7 -7 -7 154. 1361. 907. <
7400 2 -7 7 7 154. 1361. 907. <
7400 1 7 7 -7 154. 1361. 907. <
7401 3 7 -7 -5 1860. 2722. 907. o
7401 2 -5 7 7 1860. 2722. 907. o
7401 1 5 7 -7 1860. 2722. 907. o
7402 3 7 -7 -1 6797. 8166. 904. o
7402 2 -1 7 7 6797. 8166. 904. o
7402 1 1 7 -7 6797. 8166. 904. o
7403 3 -7 -7 -1 6801. 7712. 905. o
7403 2 -1 7 -7 6801. 7712. 905. o
7403 1 1 7 7 6801. 7712. 905. o
7404 3 -7 -7 -3 2449. 1815. 908. <
7404 2 -3 7 -7 2449. 1815. 908. <
7404 1 3 7 7 2449. 1815. 908. <
7405 3 -7 -7 -5 1870. 1361. 908. <
7405 2 -5 7 -7 1870. 1361. 908. <
7405 1 5 7 7 1870. 1361. 908. <
7406 3 7 -7 5 1869. 454. 908. <
7406 2 5 7 7 1869. 454. 908. <
7406 1 -5 7 -7 1869. 454. 908. <
7407 3 -7 -7 -7 147. 454. 907. <
7407 2 -7 7 -7 147. 454. 907. <
7407 1 7 7 7 147. 454. 907. <
7408 3 7 -7 7 146. -907. 907. <
7408 2 7 7 7 146. -907. 907. <
7408 1 -7 7 -7 146. -907. 907. <
7409 2 8 8 -7 202. 907. 907. <
7409 1 -8 8 7 202. 907. 907. <
7410 2 -8 8 7 198. 454. 454. <
7410 1 8 8 -7 198. 454. 454. <
7411 2 6 8 -7 353. -454. 454. <
7411 1 -6 8 7 353. -454. 454. <
7412 2 -6 8 7 359. 454. 907. <
7412 1 6 8 -7 359. 454. 907. <
7413 2 4 8 -7 2178. 1361. 908. <
7413 1 -4 8 7 2178. 1361. 908. <
7414 2 -4 8 7 2160. 1815. 908. <
7414 1 4 8 -7 2160. 1815. 908. <
7415 2 0 8 -7 4311. 5444. 906. o
7415 1 0 8 7 4311. 5444. 906. o
7416 2 -2 8 -7 206. -454. 907. <
7416 1 2 8 7 206. -454. 907. <
7417 2 4 8 7 2178. 1361. 908. <
7417 1 -4 8 -7 2178. 1361. 908. <
7418 2 -6 8 -7 359. 454. 454. <
7418 1 6 8 7 359. 454. 454. <
7419 2 6 8 7 353. 454. 454. <
7419 1 -6 8 -7 353. 454. 454. <
7420 2 -8 8 -7 198. 907. 453. <
7420 1 8 8 7 198. 907. 453. <
7421 2 8 8 7 202. 0. 907. <
7421 1 -8 8 -7 202. 0. 907. <
7422 3 -7 -9 7 323. 907. 907. <
7422 2 7 9 -7 323. 907. 907. <
7422 1 -7 9 7 323. 907. 907. <
7423 3 7 -9 -7 348. 454. 454. <
7423 2 -7 9 7 348. 454. 454. <
7423 1 7 9 -7 348. 454. 454. <
7424 3 -7 -9 3 9851. 7712. 913. o
7424 2 3 9 -7 9851. 7712. 913. o
7424 1 -3 9 7 9851. 7712. 913. o
7425 3 7 -9 -3 10013. 10888. 905. o
7425 2 -3 9 7 10013. 10888. 905. o
7425 1 3 9 -7 10013. 10888. 905. o
7426 3 -7 -9 -3 10012. 11795. 901. o
7426 2 -3 9 -7 10012. 11795. 901. o
7426 1 3 9 7 10012. 11795. 901. o
7427 3 -7 -9 -5 9580. 18146. 1335. o
7427 2 -5 9 -7 9580. 18146. 1335. o
7427 1 5 9 7 9580. 18146. 1335. o
7428 3 7 -9 5 9628. 4537. 1367. o
7428 2 5 9 7 9628. 4537. 1367. o
7428 1 -5 9 -7 9628. 4537. 1367. o
7429 3 -7 -9 -7 336. 454. 907. <
7429 2 -7 9 -7 336. 454. 907. <
7429 1 7 9 7 336. 454. 907. <
7430 3 7 -9 7 335. -454. 907. <
7430 2 7 9 7 335. -454. 907. <
7430 1 -7 9 -7 335. -454. 907. <
7431 2 8 10 -7 336. 454. 907. <
7431 1 -8 10 7 336. 454. 907. <
7432 2 -8 10 7 336. 0. 454. <
7432 1 8 10 -7 336. 0. 454. <
7433 2 6 10 -7 368. 1815. 453. o
7433 1 -6 10 7 368. 1815. 453. o
7434 2 -6 10 7 367. 1361. 907. <
7434 1 6 10 -7 367. 1361. 907. <
7435 2 4 10 -7 1335. 454. 908. <
7435 1 -4 10 7 1335. 454. 908. <
7436 2 -2 10 7 95. 0. 907. <
7436 1 2 10 -7 95. 0. 907. <
7437 2 0 10 7 3118. 2722. 908. o
7437 1 0 10 -7 3118. 2722. 908. o
7438 2 -2 10 -7 95. 1361. 907. <
7438 1 2 10 7 95. 1361. 907. <
7439 2 2 10 7 96. 454. 454. <
7439 1 -2 10 -7 96. 454. 454. <
7440 2 4 10 7 1335. 454. 454. <
7440 1 -4 10 -7 1335. 454. 454. <
7441 2 -6 10 -7 367. 2722. 906. o
7441 1 6 10 7 367. 2722. 906. o
7442 2 6 10 7 368. 907. 907. <
7442 1 -6 10 -7 368. 907. 907. <
7443 2 -8 10 -7 336. 0. 907. <
7443 1 8 10 7 336. 0. 907. <
7444 2 8 10 7 336. 0. 1361. <
7444 1 -8 10 -7 336. 0. 1361. <
7445 3 -7 -11 7 2655. 3176. 907. o
7445 2 7 11 -7 2655. 3176. 907. o
7445 1 -7 11 7 2655. 3176. 907. o
7446 3 7 -11 -7 2908. 3629. 452. o
7446 2 -7 11 7 2908. 3629. 452. o
7446 1 7 11 -7 2908. 3629. 452. o
7447 3 7 -11 -3 49773. 65780. 1156. o
7447 2 -3 11 7 49773. 65780. 1156. o
7447 1 3 11 -7 49773. 65780. 1156. o
7448 3 -7 -11 1 193195. 205506. 1404. o
7448 2 1 11 -7 193195. 205506. 1404. o
7448 1 -1 11 7 193195. 205506. 1404. o
7449 3 -7 -11 -3 49637. 63966. 1183. o
7449 2 -3 11 -7 49637. 63966. 1183. o
7449 1 3 11 7 49637. 63966. 1183. o
7450 3 -7 -11 -7 2789. 2268. 454. o
7450 2 -7 11 -7 2789. 2268. 454. o
7450 1 7 11 7 2789. 2268. 454. o
7451 3 7 -11 7 2774. 907. 908. <
7451 2 7 11 7 2774. 907. 908. <
7451 1 -7 11 -7 2774. 907. 908. <
7452 2 6 12 -7 192. 907. 453. <
7452 1 -6 12 7 192. 907. 453. <
7453 2 -6 12 7 191. 907. 907. <
7453 1 6 12 -7 191. 907. 907. <
7454 2 4 12 -7 433. 907. 453. <
7454 1 -4 12 7 433. 907. 453. <
7455 2 -4 12 7 434. 907. 907. <
7455 1 4 12 -7 434. 907. 907. <
7456 2 0 12 7 1166. 1361. 454. o
7456 1 0 12 -7 1166. 1361. 454. o
7457 2 -2 12 -7 811. 1815. 907. <
7457 1 2 12 7 811. 1815. 907. <
7458 2 2 12 7 812. 907. 454. <
7458 1 -2 12 -7 812. 907. 454. <
7459 2 -4 12 -7 434. -907. 907. <
7459 1 4 12 7 434. -907. 907. <
7460 2 4 12 7 433. 454. 454. <
7460 1 -4 12 -7 433. 454. 454. <
7461 2 -6 12 -7 191. 454. 907. <
7461 1 6 12 7 191. 454. 907. <
7462 2 6 12 7 192. -1361. 907. <
7462 1 -6 12 -7 192. -1361. 907. <
7463 3 -7 -13 7 3528. 2722. 908. o
7463 2 7 13 -7 3528. 2722. 908. o
7463 1 -7 13 7 3528. 2722. 908. o
7464 3 7 -13 -7 3898. 3629. 454. o
7464 2 -7 13 7 3898. 3629. 454. o
7464 1 7 13 -7 3898. 3629. 454. o
7465 3 7 -13 -1 300799. 317105. 1560. o
7465 2 -1 13 7 300799. 317105. 1560. o
7465 1 1 13 -7 300799. 317105. 1560. o
7466 3 -7 -13 -1 300998. 322096. 1265. o
7466 2 -1 13 -7 300998. 322096. 1265. o
7466 1 1 13 7 300998. 322096. 1265. o
7467 3 7 -13 1 302174. 292608. 2191. o
7467 2 1 13 7 302174. 292608. 2191. o
7467 1 -1 13 -7 302174. 292608. 2191. o
7468 3 -7 -13 -3 73260. 83926. 1181. o
7468 2 -3 13 -7 73260. 83926. 1181. o
7468 1 3 13 7 73260. 83926. 1181. o
7469 3 -7 -13 -7 3723. 4083. 453. o
7469 2 -7 13 -7 3723. 4083. 453. o
7469 1 7 13 7 3723. 4083. 453. o
7470 3 7 -13 7 3702. 2268. 908. o
7470 2 7 13 7 3702. 2268. 908. o
7470 1 -7 13 -7 3702. 2268. 908. o
7471 2 6 14 -7 298. 907. 907. <
7471 1 -6 14 7 298. 907. 907. <
7472 2 -6 14 7 296. 454. 454. <
7472 1 6 14 -7 296. 454. 454. <
7473 2 4 14 -7 344. 0. 907. <
7473 1 -4 14 7 344. 0. 907. <
7474 2 -4 14 7 348. -907. 453. <
7474 1 4 14 -7 348. -907. 453. <
7475 2 0 14 -7 74. 0. 907. <
7475 1 0 14 7 74. 0. 907. <
7476 2 0 14 7 74. 907. 907. <
7476 1 0 14 -7 74. 907. 907. <
7477 2 -4 14 -7 348. 454. 907. <
7477 1 4 14 7 348. 454. 907. <
7478 2 4 14 7 344. 454. 454. <
7478 1 -4 14 -7 344. 454. 454. <
7479 2 -6 14 -7 296. 907. 907. <
7479 1 6 14 7 296. 907. 907. <
7480 2 6 14 7 298. 2268. 906. o
7480 1 -6 14 -7 298. 2268. 906. o
7481 3 -7 -15 7 272. -454. 907. <
7481 2 7 15 -7 272. -454. 907. <
7481 1 -7 15 7 272. -454. 907. <
7482 3 7 -15 -7 294. -454. 907. <
7482 2 -7 15 7 294. -454. 907. <
7482 1 7 15 -7 294. -454. 907. <
7483 3 7 -15 -5 5516. 10888. 893. o
7483 2 -5 15 7 5516. 10888. 893. o
7483 1 5 15 -7 5516. 10888. 893. o
7484 3 -7 -15 3 7440. 4990. 462. o
7484 2 3 15 -7 7440. 4990. 462. o
7484 1 -3 15 7 7440. 4990. 462. o
7485 3 7 -15 -1 15845. 17239. 900. o
7485 2 -1 15 7 15845. 17239. 900. o
7485 1 1 15 -7 15845. 17239. 900. o
7486 3 -7 -15 -1 15853. 23136. 862. o
7486 2 -1 15 -7 15853. 23136. 862. o
7486 1 1 15 7 15853. 23136. 862. o
7487 3 -7 -15 -5 5527. 12249. 887. o
7487 2 -5 15 -7 5527. 12249. 887. o
7487 1 5 15 7 5527. 12249. 887. o
7488 3 7 -15 5 5541. -2722. 907. <
7488 2 5 15 7 5541. -2722. 907. <
7488 1 -5 15 -7 5541. -2722. 907. <
7489 3 -7 -15 -7 284. 0. 454. <
7489 2 -7 15 -7 284. 0. 454. <
7489 1 7 15 7 284. 0. 454. <
7490 3 7 -15 7 282. 1815. 907. <
7490 2 7 15 7 282. 1815. 907. <
7490 1 -7 15 -7 282. 1815. 907. <
7491 2 6 16 -7 39. 454. 907. <
7491 1 -6 16 7 39. 454. 907. <
7492 2 -6 16 7 40. 1361. 453. o
7492 1 6 16 -7 40. 1361. 453. o
7493 2 4 16 -7 1070. 1361. 453. o
7493 1 -4 16 7 1070. 1361. 453. o
7494 2 -4 16 7 1067. 454. 454. <
7494 1 4 16 -7 1067. 454. 454. <
7495 2 2 16 -7 119. 454. 454. <
7495 1 -2 16 7 119. 454. 454. <
7496 2 -2 16 7 120. 907. 907. <
7496 1 2 16 -7 120. 907. 907. <
7497 2 -4 16 -7 1067. 454. 907. <
7497 1 4 16 7 1067. 454. 907. <
7498 2 4 16 7 1070. 0. 907. <
7498 1 -4 16 -7 1070. 0. 907. <
7499 2 -6 16 -7 40. 0. 907. <
7499 1 6 16 7 40. 0. 907. <
7500 2 6 16 7 39. 1361. 907. <
7500 1 -6 16 -7 39. 1361. 907. <
7501 3 -7 -17 7 190. 907. 453. <
7501 2 7 17 -7 190. 907. 453. <
7501 1 -7 17 7 190. 907. 453. <
7502 3 7 -17 -7 203. 907. 907. <
7502 2 -7 17 7 203. 907. 907. <
7502 1 7 17 -7 203. 907. 907. <
7503 3 -7 -17 5 317. 454. 454. <
7503 2 5 17 -7 317. 454. 454. <
7503 1 -5 17 7 317. 454. 454. <
7504 3 7 -17 -5 302. -907. 907. <
7504 2 -5 17 7 302. -907. 907. <
7504 1 5 17 -7 302. -907. 907. <
7505 3 -7 -17 3 1364. 1361. 454. o
7505 2 3 17 -7 1364. 1361. 454. o
7505 1 -3 17 7 1364. 1361. 454. o
7506 3 7 -17 -3 1386. 454. 908. <
7506 2 -3 17 7 1386. 454. 908. <
7506 1 3 17 -7 1386. 454. 908. <
7507 3 7 -17 -1 1878. 2268. 907. o
7507 2 -1 17 7 1878. 2268. 907. o
7507 1 1 17 -7 1878. 2268. 907. o
7508 3 -7 -17 -1 1879. 2268. 907. o
7508 2 -1 17 -7 1879. 2268. 907. o
7508 1 1 17 7 1879. 2268. 907. o
7509 3 7 -17 3 1375. -907. 907. <
7509 2 3 17 7 1375. -907. 907. <
7509 1 -3 17 -7 1375. -907. 907. <
7510 3 -7 -17 -5 312. 1361. 907. <
7510 2 -5 17 -7 312. 1361. 907. <
7510 1 5 17 7 312. 1361. 907. <
7511 3 7 -17 5 308. -454. 454. <
7511 2 5 17 7 308. -454. 454. <
7511 1 -5 17 -7 308. -454. 454. <
7512 3 -7 -17 -7 197. 0. 907. <
7512 2 -7 17 -7 197. 0. 907. <
7512 1 7 17 7 197. 0. 907. <
7513 3 7 -17 7 196. 0. 907. <
7513 2 7 17 7 196. 0. 907. <
7513 1 -7 17 -7 196. 0. 907. <
7514 2 6 18 -7 5607. 4990. 1362. o
7514 1 -6 18 7 5607. 4990. 1362. o
7515 2 -6 18 7 5600. 4990. 456. o
7515 1 6 18 -7 5600. 4990. 456. o
7516 2 4 18 -7 2985. 2268. 908. o
7516 1 -4 18 7 2985. 2268. 908. o
7517 2 -4 18 7 2992. 3629. 452. o
7517 1 4 18 -7 2992. 3629. 452. o
7518 2 2 18 -7 55303. 53985. 1375. o
7518 1 -2 18 7 55303. 53985. 1375. o
7519 2 -2 18 7 55287. 61244. 1290. o
7519 1 2 18 -7 55287. 61244. 1290. o
7520 2 -2 18 -7 55287. 57614. 868. o
7520 1 2 18 7 55287. 57614. 868. o
7521 2 -4 18 -7 2992. 2722. 454. o
7521 1 4 18 7 2992. 2722. 454. o
7522 2 4 18 7 2985. 4083. 906. o
7522 1 -4 18 -7 2985. 4083. 906. o
7523 2 6 18 7 5607. 4083. 909. o
7523 1 -6 18 -7 5607. 4083. 909. o
7524 3 -7 -19 7 65. 454. 454. <
7524 2 7 19 -7 65. 454. 454. <
7524 1 -7 19 7 65. 454. 454. <
7525 3 7 -19 -7 75. 0. 907. <
7525 2 -7 19 7 75. 0. 907. <
7525 1 7 19 -7 75. 0. 907. <
7526 3 -7 -19 5 1946. 454. 908. <
7526 2 5 19 -7 1946. 454. 908. <
7526 1 -5 19 7 1946. 454. 908. <
7527 3 7 -19 -5 1922. 1815. 454. o
7527 2 -5 19 7 1922. 1815. 454. o
7527 1 5 19 -7 1922. 1815. 454. o
7528 3 -7 -19 3 268. 454. 454. <
7528 2 3 19 -7 268. 454. 454. <
7528 1 -3 19 7 268. 454. 454. <
7529 3 7 -19 -3 289. 1361. 907. <
7529 2 -3 19 7 289. 1361. 907. <
7529 1 3 19 -7 289. 1361. 907. <
7530 3 -7 -19 -1 1318. 1361. 454. o
7530 2 -1 19 -7 1318. 1361. 454. o
7530 1 1 19 7 1318. 1361. 454. o
7531 3 7 -19 1 1356. 907. 907. <
7531 2 1 19 7 1356. 907. 907. <
7531 1 -1 19 -7 1356. 907. 907. <
7532 3 -7 -19 -5 1930. 907. 908. <
7532 2 -5 19 -7 1930. 907. 908. <
7532 1 5 19 7 1930. 907. 908. <
7533 3 7 -19 5 1937. 2268. 453. o
7533 2 5 19 7 1937. 2268. 453. o
7533 1 -5 19 -7 1937. 2268. 453. o
7534 3 -7 -19 -7 70. 1361. 907. <
7534 2 -7 19 -7 70. 1361. 907. <
7534 1 7 19 7 70. 1361. 907. <
7535 3 7 -19 7 70. 1361. 907. <
7535 2 7 19 7 70. 1361. 907. <
7535 1 -7 19 -7 70. 1361. 907. <
7536 2 6 20 -7 1570. 1361. 454. o
7536 1 -6 20 7 1570. 1361. 454. o
7537 2 -6 20 7 1586. 907. 454. <
7537 1 6 20 -7 1586. 907. 454. <
7538 2 4 20 -7 765. 1361. 907. <
7538 1 -4 20 7 765. 1361. 907. <
7539 2 -2 20 7 6307. 5898. 908. o
7539 1 2 20 -7 6307. 5898. 908. o
7540 2 0 20 -7 425. 454. 907. <
7540 1 0 20 7 425. 454. 907. <
7541 2 0 20 7 425. 0. 907. <
7541 1 0 20 -7 425. 0. 907. <
7542 2 -2 20 -7 6307. 6805. 906. o
7542 1 2 20 7 6307. 6805. 906. o
7543 2 -4 20 -7 752. 907. 454. <
7543 1 4 20 7 752. 907. 454. <
7544 2 4 20 7 765. 454. 454. <
7544 1 -4 20 -7 765. 454. 454. <
7545 2 -6 20 -7 1586. 454. 908. <
7545 1 6 20 7 1586. 454. 908. <
7546 2 6 20 7 1570. 1815. 907. <
7546 1 -6 20 -7 1570. 1815. 907. <
7547 3 -7 -21 7 391. 907. 453. <
7547 2 7 21 -7 391. 907. 453. <
7547 1 -7 21 7 391. 907. 453. <
7548 3 7 -21 -7 400. 454. 907. <
7548 2 -7 21 7 400. 454. 907. <
7548 1 7 21 -7 400. 454. 907. <
7549 3 -7 -21 5 5453. 5444. 907. o
7549 2 5 21 -7 5453. 5444. 907. o
7549 1 -5 21 7 5453. 5444. 907. o
7550 3 7 -21 -5 5416. 6351. 906. o
7550 2 -5 21 7 5416. 6351. 906. o
7550 1 5 21 -7 5416. 6351. 906. o
7551 3 7 -21 -3 4961. 4537. 455. o
7551 2 -3 21 7 4961. 4537. 455. o
7551 1 3 21 -7 4961. 4537. 455. o
7552 3 -7 -21 1 13306. 12702. 910. o
7552 2 1 21 -7 13306. 12702. 910. o
7552 1 -1 21 7 13306. 12702. 910. o
7553 3 7 -21 -1 13159. 12702. 909. o
7553 2 -1 21 7 13159. 12702. 909. o
7553 1 1 21 -7 13159. 12702. 909. o
7554 3 -7 -21 -1 13156. 9073. 478. o
7554 2 -1 21 -7 13156. 9073. 478. o
7554 1 1 21 7 13156. 9073. 478. o
7555 3 -7 -21 -3 4962. 4083. 908. o
7555 2 -3 21 -7 4962. 4083. 908. o
7555 1 3 21 7 4962. 4083. 908. o
7556 3 -7 -21 -5 5417. 5444. 454. o
7556 2 -5 21 -7 5417. 5444. 454. o
7556 1 5 21 7 5417. 5444. 454. o
7557 3 7 -21 5 5452. 4990. 908. o
7557 2 5 21 7 5452. 4990. 908. o
7557 1 -5 21 -7 5452. 4990. 908. o
7558 3 -7 -21 -7 395. 907. 453. <
7558 2 -7 21 -7 395. 907. 453. <
7558 1 7 21 7 395. 907. 453. <
7559 3 7 -21 7 395. 907. 907. <
7559 2 7 21 7 395. 907. 907. <
7559 1 -7 21 -7 395. 907. 907. <
7560 2 6 22 -7 887. 1361. 453. o
7560 1 -6 22 7 887. 1361. 453. o
7561 2 -6 22 7 887. 454. 454. <
7561 1 6 22 -7 887. 454. 454. <
7562 2 4 22 -7 968. 1361. 453. o
7562 1 -4 22 7 968. 1361. 453. o
7563 2 0 22 -7 1258. 1361. 907. <
7563 1 0 22 7 1258. 1361. 907. <
7564 2 -2 22 -7 3694. 4537. 906. o
7564 1 2 22 7 3694. 4537. 906. o
7565 2 -4 22 -7 968. 454. 907. <
7565 1 4 22 7 968. 454. 907. <
7566 2 4 22 7 968. 1815. 907. <
7566 1 -4 22 -7 968. 1815. 907. <
7567 2 -6 22 -7 887. 907. 454. <
7567 1 6 22 7 887. 907. 454. <
7568 2 6 22 7 887. 907. 454. <
7568 1 -6 22 -7 887. 907. 454. <
7569 3 -7 -23 7 2461. 2268. 907. o
7569 2 7 23 -7 2461. 2268. 907. o
7569 1 -7 23 7 2461. 2268. 907. o
7570 3 7 -23 -7 2594. 2722. 907. o
7570 2 -7 23 7 2594. 2722. 907. o
7570 1 7 23 -7 2594. 2722. 907. o
7571 3 7 -23 -5 46506. 57614. 1238. o
7571 2 -5 23 7 46506. 57614. 1238. o
7571 1 5 23 -7 46506. 57614. 1238. o
7572 3 7 -23 -3 36147. 34478. 924. o
7572 2 -3 23 7 36147. 34478. 924. o
7572 1 3 23 -7 36147. 34478. 924. o
7573 3 7 -23 -1 104651. 107970. 1290. o
7573 2 -1 23 7 104651. 107970. 1290. o
7573 1 1 23 -7 104651. 107970. 1290. o
7574 3 -7 -23 -1 104666. 103434. 1386. o
7574 2 -1 23 -7 104666. 103434. 1386. o
7574 1 1 23 7 104666. 103434. 1386. o
7575 3 -7 -23 -3 36045. 39468. 1335. o
7575 2 -3 23 -7 36045. 39468. 1335. o
7575 1 3 23 7 36045. 39468. 1335. o
7576 3 -7 -23 -5 46569. 50356. 1324. o
7576 2 -5 23 -7 46569. 50356. 1324. o
7576 1 5 23 7 46569. 50356. 1324. o
7577 3 -7 -23 -7 2532. 3629. 452. o
7577 2 -7 23 -7 2532. 3629. 452. o
7577 1 7 23 7 2532. 3629. 452. o
7578 3 7 -23 7 2524. 2722. 907. o
7578 2 7 23 7 2524. 2722. 907. o
7578 1 -7 23 -7 2524. 2722. 907. o
7579 2 6 24 -7 362. 907. 453. <
7579 1 -6 24 7 362. 907. 453. <
7580 2 -6 24 7 360. 907. 453. <
7580 1 6 24 -7 360. 907. 453. <
7581 2 4 24 -7 489. -454. 454. <
7581 1 -4 24 7 489. -454. 454. <
7582 2 -4 24 7 491. 907. 907. <
7582 1 4 24 -7 491. 907. 907. <
7583 2 2 24 -7 2074. 2722. 907. o
7583 1 -2 24 7 2074. 2722. 907. o
7584 2 -2 24 -7 2072. 2722. 453. o
7584 1 2 24 7 2072. 2722. 453. o
7585 2 2 24 7 2074. 2722. 907. o
7585 1 -2 24 -7 2074. 2722. 907. o
7586 2 -4 24 -7 491. 454. 907. <
7586 1 4 24 7 491. 454. 907. <
7587 2 4 24 7 489. 907. 907. <
7587 1 -4 24 -7 489. 907. 907. <
7588 2 -6 24 -7 360. -1361. 453. <
7588 1 6 24 7 360. -1361. 453. <
7589 2 6 24 7 362. 454. 907. <
7589 1 -6 24 -7 362. 454. 907. <
7590 3 -7 -25 7 3942. 5444. 905. o
7590 2 7 25 -7 3942. 5444. 905. o
7590 1 -7 25 7 3942. 5444. 905. o
7591 3 7 -25 -7 4206. 4537. 453. o
7591 2 -7 25 7 4206. 4537. 453. o
7591 1 7 25 -7 4206. 4537. 453. o
7592 3 7 -25 -5 82550. 105248. 1453. o
7592 2 -5 25 7 82550. 105248. 1453. o
7592 1 5 25 -7 82550. 105248. 1453. o
7593 3 -7 -25 3 45593. 36746. 1005. o
7593 2 3 25 -7 45593. 36746. 1005. o
7593 1 -3 25 7 45593. 36746. 1005. o
7594 3 7 -25 -1 142585. 126570. 1726. o
7594 2 -1 25 7 142585. 126570. 1726. o
7594 1 1 25 -7 142585. 126570. 1726. o
7595 3 -7 -25 -1 142564. 131107. 2029. o
7595 2 -1 25 -7 142564. 131107. 2029. o
7595 1 1 25 7 142564. 131107. 2029. o
7596 3 -7 -25 -3 46247. 50809. 1316. o
7596 2 -3 25 -7 46247. 50809. 1316. o
7596 1 3 25 7 46247. 50809. 1316. o
7597 3 -7 -25 -5 82691. 98443. 1584. o
7597 2 -5 25 -7 82691. 98443. 1584. o
7597 1 5 25 7 82691. 98443. 1584. o
7598 3 -7 -25 -7 4082. 4083. 454. o
7598 2 -7 25 -7 4082. 4083. 454. o
7598 1 7 25 7 4082. 4083. 454. o
7599 3 7 -25 7 4066. 4990. 906. o
7599 2 7 25 7 4066. 4990. 906. o
7599 1 -7 25 -7 4066. 4990. 906. o
7600 2 6 26 -7 104. -454. 454. <
7600 1 -6 26 7 104. -454. 454. <
7601 2 -6 26 7 103. 0. 454. <
7601 1 6 26 -7 103. 0. 454. <
7602 2 4 26 -7 81. 454. 454. <
7602 1 -4 26 7 81. 454. 454. <
7603 2 -4 26 7 83. 0. 454. <
7603 1 4 26 -7 83. 0. 454. <
7604 2 2 26 -7 470. 2268. 906. o
7604 1 -2 26 7 470. 2268. 906. o
7605 2 -2 26 7 467. 907. 907. <
7605 1 2 26 -7 467. 907. 907. <
7606 2 0 26 7 1. -454. 454. <
7606 1 0 26 -7 1. -454. 454. <
7607 2 -2 26 -7 467. 454. 454. <
7607 1 2 26 7 467. 454. 454. <
7608 2 2 26 7 470. 1815. 907. <
7608 1 -2 26 -7 470. 1815. 907. <
7609 2 4 26 7 81. -454. 907. <
7609 1 -4 26 -7 81. -454. 907. <
7610 2 -6 26 -7 103. 907. 453. <
7610 1 6 26 7 103. 907. 453. <
7611 2 6 26 7 104. 907. 907. <
7611 1 -6 26 -7 104. 907. 907. <
7612 3 -7 -27 7 177. 2268. 906. o
7612 2 7 27 -7 177. 2268. 906. o
7612 1 -7 27 7 177. 2268. 906. o
7613 3 7 -27 -7 186. 907. 453. <
7613 2 -7 27 7 186. 907. 453. <
7613 1 7 27 -7 186. 907. 453. <
7614 3 -7 -27 5 1454. -1361. 907. <
7614 2 5 27 -7 1454. -1361. 907. <
7614 1 -5 27 7 1454. -1361. 907. <
7615 3 7 -27 -5 1452. -907. 453. <
7615 2 -5 27 7 1452. -907. 453. <
7615 1 5 27 -7 1452. -907. 453. <
7616 3 -7 -27 3 508. 454. 454. <
7616 2 3 27 -7 508. 454. 454. <
7616 1 -3 27 7 508. 454. 454. <
7617 3 7 -27 -1 449. -2722. 451. <
7617 2 -1 27 7 449. -2722. 451. <
7617 1 1 27 -7 449. -2722. 451. <
7618 3 -7 -27 -1 440. 454. 907. <
7618 2 -1 27 -7 440. 454. 907. <
7618 1 1 27 7 440. 454. 907. <
7619 3 7 -27 1 466. 0. 454. <
7619 2 1 27 7 466. 0. 454. <
7619 1 -1 27 -7 466. 0. 454. <
7620 3 -7 -27 -3 524. 907. 453. <
7620 2 -3 27 -7 524. 907. 453. <
7620 1 3 27 7 524. 907. 453. <
7621 3 7 -27 3 515. -1815. 907. <
7621 2 3 27 7 515. -1815. 907. <
7621 1 -3 27 -7 515. -1815. 907. <
7622 3 -7 -27 -5 1453. 1361. 454. o
7622 2 -5 27 -7 1453. 1361. 454. o
7622 1 5 27 7 1453. 1361. 454. o
7623 3 7 -27 5 1453. -4537. 1358. <
7623 2 5 27 7 1453. -4537. 1358. <
7623 1 -5 27 -7 1453. -4537. 1358. <
7624 3 -7 -27 -7 181. 907. 453. <
7624 2 -7 27 -7 181. 907. 453. <
7624 1 7 27 7 181. 907. 453. <
7625 3 7 -27 7 181. 907. 907. <
7625 2 7 27 7 181. 907. 907. <
7625 1 -7 27 -7 181. 907. 907. <
7626 2 6 28 -7 111. 0. 907. <
7626 1 -6 28 7 111. 0. 907. <
7627 2 -6 28 7 114. 907. 453. <
7627 1 6 28 -7 114. 907. 453. <
7628 2 4 28 -7 975. -454. 454. <
7628 1 -4 28 7 975. -454. 454. <
7629 2 -4 28 7 970. 0. 454. <
7629 1 4 28 -7 970. 0. 454. <
7630 2 2 28 -7 49. 454. 454. <
7630 1 -2 28 7 49. 454. 454. <
7631 2 -2 28 7 51. 454. 907. <
7631 1 2 28 -7 51. 454. 907. <
7632 2 0 28 -7 2164. 1361. 908. <
7632 1 0 28 7 2164. 1361. 908. <
7633 2 0 28 7 2164. -907. 907. <
7633 1 0 28 -7 2164. -907. 907. <
7634 2 -2 28 -7 51. -907. 453. <
7634 1 2 28 7 51. -907. 453. <
7635 2 2 28 7 49. 454. 454. <
7635 1 -2 28 -7 49. 454. 454. <
7636 2 -6 28 -7 114. -454. 454. <
7636 1 6 28 7 114. -454. 454. <
7637 2 6 28 7 111. -454. 454. <
7637 1 -6 28 -7 111. -454. 454. <
7638 3 -7 -29 7 182. 1361. 907. <
7638 2 7 29 -7 182. 1361. 907. <
7638 1 -7 29 7 182. 1361. 907. <
7639 3 7 -29 -7 190. 454. 454. <
7639 2 -7 29 7 190. 454. 454. <
7639 1 7 29 -7 190. 454. 454. <
7640 3 -7 -29 5 271. 1361. 453. o
7640 2 5 29 -7 271. 1361. 453. o
7640 1 -5 29 7 271. 1361. 453. o
7641 3 7 -29 -5 259. 454. 454. <
7641 2 -5 29 7 259. 454. 454. <
7641 1 5 29 -7 259. 454. 454. <
7642 3 -7 -29 3 732. -454. 454. <
7642 2 3 29 -7 732. -454. 454. <
7642 1 -3 29 7 732. -454. 454. <
7643 3 7 -29 -3 737. 454. 454. <
7643 2 -3 29 7 737. 454. 454. <
7643 1 3 29 -7 737. 454. 454. <
7644 3 7 -29 -1 1330. 2722. 452. o
7644 2 -1 29 7 1330. 2722. 452. o
7644 1 1 29 -7 1330. 2722. 452. o
7645 3 -7 -29 -1 1335. 907. 907. <
7645 2 -1 29 -7 1335. 907. 907. <
7645 1 1 29 7 1335. 907. 907. <
7646 3 7 -29 1 1336. 1815. 453. o
7646 2 1 29 7 1336. 1815. 453. o
7646 1 -1 29 -7 1336. 1815. 453. o
7647 3 -7 -29 -3 732. -1815. 907. <
7647 2 -3 29 -7 732. -1815. 907. <
7647 1 3 29 7 732. -1815. 907. <
7648 3 7 -29 3 737. 1361. 907. <
7648 2 3 29 7 737. 1361. 907. <
7648 1 -3 29 -7 737. 1361. 907. <
7649 3 -7 -29 -5 265. 1815. 452. o
7649 2 -5 29 -7 265. 1815. 452. o
7649 1 5 29 7 265. 1815. 452. o
7650 3 7 -29 5 265. -454. 907. <
7650 2 5 29 7 265. -454. 907. <
7650 1 -5 29 -7 265. -454. 907. <
7651 3 -7 -29 -7 186. -454. 907. <
7651 2 -7 29 -7 186. -454. 907. <
7651 1 7 29 7 186. -454. 907. <
7652 3 7 -29 7 185. 0. 1361. <
7652 2 7 29 7 185. 0. 1361. <
7652 1 -7 29 -7 185. 0. 1361. <
7653 2 6 30 -7 2664. 0. 908. <
7653 1 -6 30 7 2664. 0. 908. <
7654 2 -6 30 7 2657. 2722. 454. o
7654 1 6 30 -7 2657. 2722. 454. o
7655 2 4 30 -7 16286. 18600. 895. o
7655 1 -4 30 7 16286. 18600. 895. o
7656 2 -4 30 7 16304. 18146. 898. o
7656 1 4 30 -7 16304. 18146. 898. o
7657 2 2 30 -7 3120. 4083. 452. o
7657 1 -2 30 7 3120. 4083. 452. o
7658 2 -2 30 7 3112. 3629. 453. o
7658 1 2 30 -7 3112. 3629. 453. o
7659 2 0 30 -7 52011. 56253. 1315. o
7659 1 0 30 7 52011. 56253. 1315. o
7660 2 0 30 7 52011. 58522. 1287. o
7660 1 0 30 -7 52011. 58522. 1287. o
7661 2 -2 30 -7 3112. 4537. 450. o
7661 1 2 30 7 3112. 4537. 450. o
7662 2 2 30 7 3120. 3176. 454. o
7662 1 -2 30 -7 3120. 3176. 454. o
7663 2 -4 30 -7 16304. 13610. 476. o
7663 1 4 30 7 16304. 13610. 476. o
7664 2 -6 30 -7 2657. 1815. 455. o
7664 1 6 30 7 2657. 1815. 455. o
7665 2 6 30 7 2664. 1361. 455. o
7665 1 -6 30 -7 2664. 1361. 455. o
7666 3 -7 -31 7 65. 454. 907. <
7666 2 7 31 -7 65. 454. 907. <
7666 1 -7 31 7 65. 454. 907. <
7667 3 7 -31 -7 71. 907. 453. <
7667 2 -7 31 7 71. 907. 453. <
7667 1 7 31 -7 71. 907. 453. <
7668 3 -7 -31 5 1212. 2268. 452. o
7668 2 5 31 -7 1212. 2268. 452. o
7668 1 -5 31 7 1212. 2268. 452. o
7669 3 7 -31 -5 1203. 1815. 453. o
7669 2 -5 31 7 1203. 1815. 453. o
7669 1 5 31 -7 1203. 1815. 453. o
7670 3 -7 -31 3 1369. 907. 907. <
7670 2 3 31 -7 1369. 907. 907. <
7670 1 -3 31 7 1369. 907. 907. <
7671 3 7 -31 -3 1388. 1815. 453. o
7671 2 -3 31 7 1388. 1815. 453. o
7671 1 3 31 -7 1388. 1815. 453. o
7672 3 -7 -31 1 3601. 3629. 907. o
7672 2 1 31 -7 3601. 3629. 907. o
7672 1 -1 31 7 3601. 3629. 907. o
7673 3 7 -31 -1 3590. 4083. 907. o
7673 2 -1 31 7 3590. 4083. 907. o
7673 1 1 31 -7 3590. 4083. 907. o
7674 3 7 -31 1 3599. 4537. 906. o
7674 2 1 31 7 3599. 4537. 906. o
7674 1 -1 31 -7 3599. 4537. 906. o
7675 3 -7 -31 -3 1383. 1361. 907. <
7675 2 -3 31 -7 1383. 1361. 907. <
7675 1 3 31 7 1383. 1361. 907. <
7676 3 7 -31 3 1375. 907. 454. <
7676 2 3 31 7 1375. 907. 454. <
7676 1 -3 31 -7 1375. 907. 454. <
7677 3 -7 -31 -5 1207. 454. 454. <
7677 2 -5 31 -7 1207. 454. 454. <
7677 1 5 31 7 1207. 454. 454. <
7678 3 7 -31 5 1208. 1361. 907. <
7678 2 5 31 7 1208. 1361. 907. <
7678 1 -5 31 -7 1208. 1361. 907. <
7679 3 -7 -31 -7 68. 0. 907. <
7679 2 -7 31 -7 68. 0. 907. <
7679 1 7 31 7 68. 0. 907. <
7680 3 7 -31 7 68. 454. 1361. <
7680 2 7 31 7 68. 454. 1361. <
7680 1 -7 31 -7 68. 454. 1361. <
7681 2 6 32 -7 1204. 907. 454. <
7681 1 -6 32 7 1204. 907. 454. <
7682 2 -6 32 7 1214. -454. 454. <
7682 1 6 32 -7 1214. -454. 454. <
7683 2 4 32 -7 5839. 4537. 909. o
7683 1 -4 32 7 5839. 4537. 909. o
7684 2 -4 32 7 5810. 6805. 905. o
7684 1 4 32 -7 5810. 6805. 905. o
7685 2 2 32 -7 529. 907. 453. <
7685 1 -2 32 7 529. 907. 453. <
7686 2 -2 32 7 538. -454. 454. <
7686 1 2 32 -7 538. -454. 454. <
7687 2 0 32 7 17358. 18600. 440. o
7687 1 0 32 -7 17358. 18600. 440. o
7688 2 -2 32 -7 538. 907. 453. <
7688 1 2 32 7 538. 907. 453. <
7689 2 2 32 7 529. 0. 907. <
7689 1 -2 32 -7 529. 0. 907. <
7690 2 -4 32 -7 5810. 4990. 456. o
7690 1 4 32 7 5810. 4990. 456. o
7691 2 -6 32 -7 1214. 1815. 453. o
7691 1 6 32 7 1214. 1815. 453. o
7692 2 6 32 7 1204. 907. 907. <
7692 1 -6 32 -7 1204. 907. 907. <
7693 3 -7 -33 7 617. 907. 907. <
7693 2 7 33 -7 617. 907. 907. <
7693 1 -7 33 7 617. 907. 907. <
7694 3 7 -33 -7 615. 907. 907. <
7694 2 -7 33 7 615. 907. 907. <
7694 1 7 33 -7 615. 907. 907. <
7695 3 -7 -33 5 3404. 3176. 908. o
7695 2 5 33 -7 3404. 3176. 908. o
7695 1 -5 33 7 3404. 3176. 908. o
7696 3 7 -33 -5 3392. 4083. 452. o
7696 2 -5 33 7 3392. 4083. 452. o
7696 1 5 33 -7 3392. 4083. 452. o
7697 3 -7 -33 3 5395. 6805. 905. o
7697 2 3 33 -7 5395. 6805. 905. o
7697 1 -3 33 7 5395. 6805. 905. o
7698 3 7 -33 -3 5424. 6351. 450. o
7698 2 -3 33 7 5424. 6351. 450. o
7698 1 3 33 -7 5424. 6351. 450. o
7699 3 -7 -33 1 11179. 9980. 461. o
7699 2 1 33 -7 11179. 9980. 461. o
7699 1 -1 33 7 11179. 9980. 461. o
7700 3 7 -33 -1 11119. 10434. 909. o
7700 2 -1 33 7 11119. 10434. 909. o
7700 1 1 33 -7 11119. 10434. 909. o
7701 3 -7 -33 -1 11117. 9073. 913. o
7701 2 -1 33 -7 11117. 9073. 913. o
7701 1 1 33 7 11117. 9073. 913. o
7702 3 7 -33 1 11181. 13610. 898. o
7702 2 1 33 7 11181. 13610. 898. o
7702 1 -1 33 -7 11181. 13610. 898. o
7703 3 -7 -33 -3 5428. 3629. 458. o
7703 2 -3 33 -7 5428. 3629. 458. o
7703 1 3 33 7 5428. 3629. 458. o
7704 3 7 -33 3 5391. 4537. 456. o
7704 2 3 33 7 5391. 4537. 456. o
7704 1 -3 33 -7 5391. 4537. 456. o
7705 3 -7 -33 -5 3390. 4083. 452. o
7705 2 -5 33 -7 3390. 4083. 452. o
7705 1 5 33 7 3390. 4083. 452. o
7706 3 7 -33 5 3406. 3176. 454. o
7706 2 5 33 7 3406. 3176. 454. o
7706 1 -5 33 -7 3406. 3176. 454. o
7707 3 -7 -33 -7 616. 454. 454. <
7707 2 -7 33 -7 616. 454. 454. <
7707 1 7 33 7 616. 454. 454. <
7708 3 7 -33 7 616. 454. 1361. <
7708 2 7 33 7 616. 454. 1361. <
7708 1 -7 33 -7 616. 454. 1361. <
7709 2 6 34 -7 526. 907. 907. <
7709 1 -6 34 7 526. 907. 907. <
7710 2 -6 34 7 526. 907. 907. <
7710 1 6 34 -7 526. 907. 907. <
7711 2 4 34 -7 1493. 2268. 453. o
7711 1 -4 34 7 1493. 2268. 453. o
7712 2 -4 34 7 1494. 2268. 453. o
7712 1 4 34 -7 1494. 2268. 453. o
7713 2 2 34 -7 838. 907. 454. <
7713 1 -2 34 7 838. 907. 454. <
7714 2 -2 34 7 838. 1361. 907. <
7714 1 2 34 -7 838. 1361. 907. <
7715 2 0 34 -7 4373. 3629. 908. o
7715 1 0 34 7 4373. 3629. 908. o
7716 2 0 34 7 4373. 5444. 906. o
7716 1 0 34 -7 4373. 5444. 906. o
7717 2 -2 34 -7 838. 1361. 907. <
7717 1 2 34 7 838. 1361. 907. <
7718 2 2 34 7 838. 1361. 907. <
7718 1 -2 34 -7 838. 1361. 907. <
7719 2 -4 34 -7 1494. 454. 454. <
7719 1 4 34 7 1494. 454. 454. <
7720 2 4 34 7 1493. -454. 907. <
7720 1 -4 34 -7 1493. -454. 907. <
7721 2 -6 34 -7 526. 907. 453. <
7721 1 6 34 7 526. 907. 453. <
7722 2 6 34 7 526. -907. 907. <
7722 1 -6 34 -7 526. -907. 907. <
7723 3 -7 -35 7 2169. 907. 908. <
7723 2 7 35 -7 2169. 907. 908. <
7723 1 -7 35 7 2169. 907. 908. <
7724 3 7 -35 -7 2189. 2268. 907. o
7724 2 -7 35 7 2189. 2268. 907. o
7724 1 7 35 -7 2189. 2268. 907. o
7725 3 -7 -35 5 18635. 15424. 923. o
7725 2 5 35 -7 18635. 15424. 923. o
7725 1 -5 35 7 18635. 15424. 923. o
7726 3 7 -35 -5 18549. 18600. 907. o
7726 2 -5 35 7 18549. 18600. 907. o
7726 1 5 35 -7 18549. 18600. 907. o
7727 3 7 -35 -3 19227. 19961. 1358. o
7727 2 -3 35 7 19227. 19961. 1358. o
7727 1 3 35 -7 19227. 19961. 1358. o
7728 3 -7 -35 1 36721. 35385. 921. o
7728 2 1 35 -7 36721. 35385. 921. o
7728 1 -1 35 7 36721. 35385. 921. o
7729 3 7 -35 -1 36594. 37200. 901. o
7729 2 -1 35 7 36594. 37200. 901. o
7729 1 1 35 -7 36594. 37200. 901. o
7730 3 -7 -35 -1 36609. 35839. 915. o
7730 2 -1 35 -7 36609. 35839. 915. o
7730 1 1 35 7 36609. 35839. 915. o
7731 3 7 -35 1 36706. 39922. 1336. o
7731 2 1 35 7 36706. 39922. 1336. o
7731 1 -1 35 -7 36706. 39922. 1336. o
7732 3 -7 -35 -3 19219. 20414. 1356. o
7732 2 -3 35 -7 19219. 20414. 1356. o
7732 1 3 35 7 19219. 20414. 1356. o
7733 3 -7 -35 -5 18578. 14971. 1372. o
7733 2 -5 35 -7 18578. 14971. 1372. o
7733 1 5 35 7 18578. 14971. 1372. o
7734 3 7 -35 5 18606. 11341. 1380. o
7734 2 5 35 7 18606. 11341. 1380. o
7734 1 -5 35 -7 18606. 11341. 1380. o
7735 3 -7 -35 -7 2180. 2268. 907. o
7735 2 -7 35 -7 2180. 2268. 907. o
7735 1 7 35 7 2180. 2268. 907. o
7736 3 7 -35 7 2178. 3629. 1360. o
7736 2 7 35 7 2178. 3629. 1360. o
7736 1 -7 35 -7 2178. 3629. 1360. o
7737 2 6 36 -7 154. 454. 907. <
7737 1 -6 36 7 154. 454. 907. <
7738 2 -6 36 7 153. 1815. 907. <
7738 1 6 36 -7 153. 1815. 907. <
7739 2 4 36 -7 316. 1361. 453. o
7739 1 -4 36 7 316. 1361. 453. o
7740 2 -4 36 7 318. 907. 453. <
7740 1 4 36 -7 318. 907. 453. <
7741 2 2 36 -7 554. 907. 453. <
7741 1 -2 36 7 554. 907. 453. <
7742 2 -2 36 7 553. -454. 907. <
7742 1 2 36 -7 553. -454. 907. <
7743 2 0 36 -7 636. 907. 907. <
7743 1 0 36 7 636. 907. 907. <
7744 2 0 36 7 636. 2722. 906. o
7744 1 0 36 -7 636. 2722. 906. o
7745 2 -2 36 -7 553. 454. 907. <
7745 1 2 36 7 553. 454. 907. <
7746 2 2 36 7 554. 907. 453. <
7746 1 -2 36 -7 554. 907. 453. <
7747 2 -4 36 -7 318. 1361. 453. o
7747 1 4 36 7 318. 1361. 453. o
7748 2 4 36 7 315. 1361. 907. <
7748 1 -4 36 -7 315. 1361. 907. <
7749 2 -6 36 -7 153. 454. 454. <
7749 1 6 36 7 153. 454. 454. <
7750 2 6 36 7 154. 454. 907. <
7750 1 -6 36 -7 154. 454. 907. <
7751 3 -7 -37 5 47122. 40829. 1413. o
7751 2 5 37 -7 47122. 40829. 1413. o
7751 1 -5 37 7 47122. 40829. 1413. o
7752 3 7 -37 -5 46873. 48541. 883. o
7752 2 -5 37 7 46873. 48541. 883. o
7752 1 5 37 -7 46873. 48541. 883. o
7753 3 -7 -37 3 58680. 37200. 1536. o
7753 2 3 37 -7 58680. 37200. 1536. o
7753 1 -3 37 7 58680. 37200. 1536. o
7754 3 7 -37 -3 58995. 68956. 1226. o
7754 2 -3 37 7 58995. 68956. 1226. o
7754 1 3 37 -7 58995. 68956. 1226. o
7755 3 -7 -37 1 141848. 149253. 1647. o
7755 2 1 37 -7 141848. 149253. 1647. o
7755 1 -1 37 7 141848. 149253. 1647. o
7756 3 7 -37 -1 141395. 150614. 1062. o
7756 2 -1 37 7 141395. 150614. 1062. o
7756 1 1 37 -7 141395. 150614. 1062. o
7757 3 -7 -37 -1 141478. 147438. 1179. o
7757 2 -1 37 -7 141478. 147438. 1179. o
7757 1 1 37 7 141478. 147438. 1179. o
7758 3 7 -37 1 141765. 179648. 3582. o
7758 2 1 37 7 141765. 179648. 3582. o
7758 1 -1 37 -7 141765. 179648. 3582. o
7759 3 -7 -37 -3 58967. 63966. 1299. o
7759 2 -3 37 -7 58967. 63966. 1299. o
7759 1 3 37 7 58967. 63966. 1299. o
7760 3 -7 -37 -5 46961. 25405. 1492. o
7760 2 -5 37 -7 46961. 25405. 1492. o
7760 1 5 37 7 46961. 25405. 1492. o
7761 3 7 -37 5 47034. 26312. 1913. o
7761 2 5 37 7 47034. 26312. 1913. o
7761 1 -5 37 -7 47034. 26312. 1913. o
7762 2 6 38 -7 30. 907. 453. <
7762 1 -6 38 7 30. 907. 453. <
7763 2 -6 38 7 29. 454. 454. <
7763 1 6 38 -7 29. 454. 454. <
7764 2 4 38 -7 19. 907. 453. <
7764 1 -4 38 7 19. 907. 453. <
7765 2 -4 38 7 19. 907. 453. <
7765 1 4 38 -7 19. 907. 453. <
7766 2 2 38 -7 22. -454. 907. <
7766 1 -2 38 7 22. -454. 907. <
7767 2 -2 38 7 22. 1361. 453. o
7767 1 2 38 -7 22. 1361. 453. o
7768 2 0 38 -7 3. 1815. 907. <
7768 1 0 38 7 3. 1815. 907. <
7769 2 0 38 7 3. 2268. 906. o
7769 1 0 38 -7 3. 2268. 906. o
7770 2 -2 38 -7 22. 0. 907. <
7770 1 2 38 7 22. 0. 907. <
7771 2 2 38 7 22. 0. 454. <
7771 1 -2 38 -7 22. 0. 454. <
7772 2 -4 38 -7 19. -907. 907. <
7772 1 4 38 7 19. -907. 907. <
7773 2 4 38 7 19. 0. 907. <
7773 1 -4 38 -7 19. 0. 907. <
7774 2 -6 38 -7 29. 1361. 453. o
7774 1 6 38 7 29. 1361. 453. o
7775 2 6 38 7 30. 454. 907. <
7775 1 -6 38 -7 30. 454. 907. <
7776 3 -7 -39 5 1658. -1815. 907. <
7776 2 5 39 -7 1658. -1815. 907. <
7776 1 -5 39 7 1658. -1815. 907. <
7777 3 7 -39 -5 1656. 0. 454. <
7777 2 -5 39 7 1656. 0. 454. <
7777 1 5 39 -7 1656. 0. 454. <
7778 3 -7 -39 3 1229. -2722. 906. <
7778 2 3 39 -7 1229. -2722. 906. <
7778 1 -3 39 7 1229. -2722. 906. <
7779 3 7 -39 -3 1211. 907. 454. <
7779 2 -3 39 7 1211. 907. 454. <
7779 1 3 39 -7 1211. 907. 454. <
7780 3 -7 -39 1 1157. -3629. 904. <
7780 2 1 39 -7 1157. -3629. 904. <
7780 1 -1 39 7 1157. -3629. 904. <
7781 3 7 -39 -1 1144. -2268. 906. <
7781 2 -1 39 7 1144. -2268. 906. <
7781 1 1 39 -7 1144. -2268. 906. <
7782 3 7 -39 1 1149. -2268. 906. <
7782 2 1 39 7 1149. -2268. 906. <
7782 1 -1 39 -7 1149. -2268. 906. <
7783 3 -7 -39 -3 1217. 0. 454. <
7783 2 -3 39 -7 1217. 0. 454. <
7783 1 3 39 7 1217. 0. 454. <
7784 3 7 -39 3 1223. -907. 453. <
7784 2 3 39 7 1223. -907. 453. <
7784 1 -3 39 -7 1223. -907. 453. <
7785 3 -7 -39 -5 1658. -1361. 907. <
7785 2 -5 39 -7 1658. -1361. 907. <
7785 1 5 39 7 1658. -1361. 907. <
7786 3 7 -39 5 1657. -907. 907. <
7786 2 5 39 7 1657. -907. 907. <
7786 1 -5 39 -7 1657. -907. 907. <
7787 2 6 40 -7 68. -454. 454. <
7787 1 -6 40 7 68. -454. 454. <
7788 2 -6 40 7 69. 0. 454. <
7788 1 6 40 -7 69. 0. 454. <
7789 2 4 40 -7 299. 907. 453. <
7789 1 -4 40 7 299. 907. 453. <
7790 2 -4 40 7 296. 454. 454. <
7790 1 4 40 -7 296. 454. 454. <
7791 2 2 40 -7 968. 907. 907. <
7791 1 -2 40 7 968. 907. 907. <
7792 2 -2 40 7 973. 907. 454. <
7792 1 2 40 -7 973. 907. 454. <
7793 2 0 40 -7 103. 0. 454. <
7793 1 0 40 7 103. 0. 454. <
7794 2 0 40 7 103. 907. 907. <
7794 1 0 40 -7 103. 907. 907. <
7795 2 -2 40 -7 973. 907. 907. <
7795 1 2 40 7 973. 907. 907. <
7796 2 2 40 7 968. 1361. 453. o
7796 1 -2 40 -7 968. 1361. 453. o
7797 2 -4 40 -7 296. 0. 907. <
7797 1 4 40 7 296. 0. 907. <
7798 2 4 40 7 299. 454. 454. <
7798 1 -4 40 -7 299. 454. 454. <
7799 2 -6 40 -7 69. -454. 454. <
7799 1 6 40 7 69. -454. 454. <
7800 2 6 40 7 68. 454. 907. <
7800 1 -6 40 -7 68. 454. 907. <
7801 3 -7 -41 5 90. 0. 454. <
7801 2 5 41 -7 90. 0. 454. <
7801 1 -5 41 7 90. 0. 454. <
7802 3 7 -41 -5 85. 1361. 907. <
7802 2 -5 41 7 85. 1361. 907. <
7802 1 5 41 -7 85. 1361. 907. <
7803 3 -7 -41 3 382. 1361. 907. <
7803 2 3 41 -7 382. 1361. 907. <
7803 1 -3 41 7 382. 1361. 907. <
7804 3 7 -41 -3 390. 1361. 453. o
7804 2 -3 41 7 390. 1361. 453. o
7804 1 3 41 -7 390. 1361. 453. o
7805 3 -7 -41 1 188. -454. 454. <
7805 2 1 41 -7 188. -454. 454. <
7805 1 -1 41 7 188. -454. 454. <
7806 3 7 -41 -1 183. 454. 907. <
7806 2 -1 41 7 183. 454. 907. <
7806 1 1 41 -7 183. 454. 907. <
7807 3 7 -41 1 187. 0. 907. <
7807 2 1 41 7 187. 0. 907. <
7807 1 -1 41 -7 187. 0. 907. <
7808 3 -7 -41 -3 388. 907. 453. <
7808 2 -3 41 -7 388. 907. 453. <
7808 1 3 41 7 388. 907. 453. <
7809 3 7 -41 3 384. 907. 453. <
7809 2 3 41 7 384. 907. 453. <
7809 1 -3 41 -7 384. 907. 453. <
7810 3 -7 -41 -5 88. 0. 454. <
7810 2 -5 41 -7 88. 0. 454. <
7810 1 5 41 7 88. 0. 454. <
7811 3 7 -41 5 88. 2268. 906. o
7811 2 5 41 7 88. 2268. 906. o
7811 1 -5 41 -7 88. 2268. 906. o
7812 2 6 42 -7 2174. 2268. 907. o
7812 1 -6 42 7 2174. 2268. 907. o
7813 2 -6 42 7 2167. -454. 908. <
7813 1 6 42 -7 2167. -454. 908. <
7814 2 4 42 -7 1287. 907. 907. <
7814 1 -4 42 7 1287. 907. 907. <
7815 2 -4 42 7 1294. -907. 907. <
7815 1 4 42 -7 1294. -907. 907. <
7816 2 2 42 -7 17582. 22229. 879. o
7816 1 -2 42 7 17582. 22229. 879. o
7817 2 -2 42 7 17570. 16785. 1364. o
7817 1 2 42 -7 17570. 16785. 1364. o
7818 2 0 42 -7 200. 907. 907. <
7818 1 0 42 7 200. 907. 907. <
7819 2 0 42 7 200. 1815. 907. <
7819 1 0 42 -7 200. 1815. 907. <
7820 2 -2 42 -7 17570. 13156. 926. o
7820 1 2 42 7 17570. 13156. 926. o
7821 2 2 42 7 17582. 17239. 909. o
7821 1 -2 42 -7 17582. 17239. 909. o
7822 2 -4 42 -7 1294. 907. 454. <
7822 1 4 42 7 1294. 907. 454. <
7823 2 4 42 7 1287. 907. 454. <
7823 1 -4 42 -7 1287. 907. 454. <
7824 2 -6 42 -7 2168. 1815. 908. <
7824 1 6 42 7 2168. 1815. 908. <
7825 2 6 42 7 2174. 3629. 1360. o
7825 1 -6 42 -7 2174. 3629. 1360. o
7826 3 -7 -43 5 427. 0. 454. <
7826 2 5 43 -7 427. 0. 454. <
7826 1 -5 43 7 427. 0. 454. <
7827 3 7 -43 -5 423. 1361. 907. <
7827 2 -5 43 7 423. 1361. 907. <
7827 1 5 43 -7 423. 1361. 907. <
7828 3 -7 -43 3 691. -454. 454. <
7828 2 3 43 -7 691. -454. 454. <
7828 1 -3 43 7 691. -454. 454. <
7829 3 7 -43 -3 693. 454. 454. <
7829 2 -3 43 7 693. 454. 454. <
7829 1 3 43 -7 693. 454. 454. <
7830 3 -7 -43 1 1202. 2722. 452. o
7830 2 1 43 -7 1202. 2722. 452. o
7830 1 -1 43 7 1202. 2722. 452. o
7831 3 7 -43 -1 1208. 2722. 452. o
7831 2 -1 43 7 1208. 2722. 452. o
7831 1 1 43 -7 1208. 2722. 452. o
7832 3 -7 -43 -1 1208. 907. 454. <
7832 2 -1 43 -7 1208. 907. 454. <
7832 1 1 43 7 1208. 907. 454. <
7833 3 7 -43 1 1202. 454. 907. <
7833 2 1 43 7 1202. 454. 907. <
7833 1 -1 43 -7 1202. 454. 907. <
7834 3 -7 -43 -3 691. 1815. 453. o
7834 2 -3 43 -7 691. 1815. 453. o
7834 1 3 43 7 691. 1815. 453. o
7835 3 7 -43 3 693. 1361. 907. <
7835 2 3 43 7 693. 1361. 907. <
7835 1 -3 43 -7 693. 1361. 907. <
7836 3 -7 -43 -5 425. 907. 453. <
7836 2 -5 43 -7 425. 907. 453. <
7836 1 5 43 7 425. 907. 453. <
7837 3 7 -43 5 425. 454. 907. <
7837 2 5 43 7 425. 454. 907. <
7837 1 -5 43 -7 425. 454. 907. <
7838 2 6 44 -7 1093. 1815. 907. <
7838 1 -6 44 7 1093. 1815. 907. <
7839 2 -6 44 7 1102. 1815. 907. <
7839 1 6 44 -7 1102. 1815. 907. <
7840 2 4 44 -7 533. 2722. 906. o
7840 1 -4 44 7 533. 2722. 906. o
7841 2 -4 44 7 526. 2722. 906. o
7841 1 4 44 -7 526. 2722. 906. o
7842 2 2 44 -7 7364. 6805. 456. o
7842 1 -2 44 7 7364. 6805. 456. o
7843 2 -2 44 7 7381. 6805. 908. o
7843 1 2 44 -7 7381. 6805. 908. o
7844 2 0 44 -7 59. 1361. 907. <
7844 1 0 44 7 59. 1361. 907. <
7845 2 0 44 7 59. 1361. 907. <
7845 1 0 44 -7 59. 1361. 907. <
7846 2 -2 44 -7 7381. 5444. 461. o
7846 1 2 44 7 7381. 5444. 461. o
7847 2 2 44 7 7364. 4083. 912. o
7847 1 -2 44 -7 7364. 4083. 912. o
7848 2 -4 44 -7 526. 907. 453. <
7848 1 4 44 7 526. 907. 453. <
7849 2 4 44 7 533. -454. 454. <
7849 1 -4 44 -7 533. -454. 454. <
7850 2 -6 44 -7 1102. 3176. 906. o
7850 1 6 44 7 1102. 3176. 906. o
7851 2 6 44 7 1093. 907. 1361. <
7851 1 -6 44 -7 1093. 907. 1361. <
7852 3 -7 -45 5 1391. 907. 907. <
7852 2 5 45 -7 1391. 907. 907. <
7852 1 -5 45 7 1391. 907. 907. <
7853 3 7 -45 -5 1393. -454. 454. <
7853 2 -5 45 7 1393. -454. 454. <
7853 1 5 45 -7 1393. -454. 454. <
7854 3 -7 -45 3 3505. 3629. 453. o
7854 2 3 45 -7 3505. 3629. 453. o
7854 1 -3 45 7 3505. 3629. 453. o
7855 3 7 -45 -3 3516. 1361. 909. <
7855 2 -3 45 7 3516. 1361. 909. <
7855 1 3 45 -7 3516. 1361. 909. <
7856 3 -7 -45 1 6329. 4990. 458. o
7856 2 1 45 -7 6329. 4990. 458. o
7856 1 -1 45 7 6329. 4990. 458. o
7857 3 7 -45 -1 6320. 6805. 906. o
7857 2 -1 45 7 6320. 6805. 906. o
7857 1 1 45 -7 6320. 6805. 906. o
7858 3 -7 -45 -1 6320. 4537. 459. o
7858 2 -1 45 -7 6320. 4537. 459. o
7858 1 1 45 7 6320. 4537. 459. o
7859 3 7 -45 1 6328. 9073. 901. o
7859 2 1 45 7 6328. 9073. 901. o
7859 1 -1 45 -7 6328. 9073. 901. o
7860 3 -7 -45 -3 3519. 3629. 453. o
7860 2 -3 45 -7 3519. 3629. 453. o
7860 1 3 45 7 3519. 3629. 453. o
7861 3 7 -45 3 3502. 4537. 906. o
7861 2 3 45 7 3502. 4537. 906. o
7861 1 -3 45 -7 3502. 4537. 906. o
7862 3 -7 -45 -5 1391. 1361. 454. o
7862 2 -5 45 -7 1391. 1361. 454. o
7862 1 5 45 7 1391. 1361. 454. o
7863 3 7 -45 5 1393. 907. 907. <
7863 2 5 45 7 1393. 907. 907. <
7863 1 -5 45 -7 1393. 907. 907. <
7864 2 6 46 -7 255. 454. 907. <
7864 1 -6 46 7 255. 454. 907. <
7865 2 -6 46 7 255. 454. 454. <
7865 1 6 46 -7 255. 454. 454. <
7866 2 4 46 -7 217. 454. 454. <
7866 1 -4 46 7 217. 454. 454. <
7867 2 -4 46 7 218. 454. 907. <
7867 1 4 46 -7 218. 454. 907. <
7868 2 2 46 -7 1204. 907. 454. <
7868 1 -2 46 7 1204. 907. 454. <
7869 2 -2 46 7 1204. 454. 907. <
7869 1 2 46 -7 1204. 454. 907. <
7870 2 0 46 -7 194. 907. 453. <
7870 1 0 46 7 194. 907. 453. <
7871 2 0 46 7 194. 907. 453. <
7871 1 0 46 -7 194. 907. 453. <
7872 2 -2 46 -7 1204. 1815. 453. o
7872 1 2 46 7 1204. 1815. 453. o
7873 2 2 46 7 1204. 0. 907. <
7873 1 -2 46 -7 1204. 0. 907. <
7874 2 -4 46 -7 218. 907. 453. <
7874 1 4 46 7 218. 907. 453. <
7875 2 4 46 7 217. -907. 907. <
7875 1 -4 46 -7 217. -907. 907. <
7876 2 -6 46 -7 255. 4083. 904. o
7876 1 6 46 7 255. 4083. 904. o
7877 2 6 46 7 255. 1361. 907. <
7877 1 -6 46 -7 255. 1361. 907. <
7878 3 -7 -47 5 5958. 6351. 907. o
7878 2 5 47 -7 5958. 6351. 907. o
7878 1 -5 47 7 5958. 6351. 907. o
7879 3 7 -47 -5 5978. 6805. 906. o
7879 2 -5 47 7 5978. 6805. 906. o
7879 1 5 47 -7 5978. 6805. 906. o
7880 3 -7 -47 3 10864. 9527. 461. o
7880 2 3 47 -7 10864. 9527. 461. o
7880 1 -3 47 7 10864. 9527. 461. o
7881 3 7 -47 -3 10911. 7258. 1367. o
7881 2 -3 47 7 10911. 7258. 1367. o
7881 1 3 47 -7 10911. 7258. 1367. o
7882 3 -7 -47 1 20882. 19054. 918. o
7882 2 1 47 -7 20882. 19054. 918. o
7882 1 -1 47 7 20882. 19054. 918. o
7883 3 7 -47 -1 20911. 19961. 1365. o
7883 2 -1 47 7 20911. 19961. 1365. o
7883 1 1 47 -7 20911. 19961. 1365. o
7884 3 -7 -47 -1 20910. 17693. 1373. o
7884 2 -1 47 -7 20910. 17693. 1373. o
7884 1 1 47 7 20910. 17693. 1373. o
7885 3 7 -47 1 20883. 20414. 910. o
7885 2 1 47 7 20883. 20414. 910. o
7885 1 -1 47 -7 20883. 20414. 910. o
7886 3 -7 -47 -3 10906. 9073. 913. o
7886 2 -3 47 -7 10906. 9073. 913. o
7886 1 3 47 7 10906. 9073. 913. o
7887 3 7 -47 3 10869. 8166. 914. o
7887 2 3 47 7 10869. 8166. 914. o
7887 1 -3 47 -7 10869. 8166. 914. o
7888 3 -7 -47 -5 5974. 4083. 1363. o
7888 2 -5 47 -7 5974. 4083. 1363. o
7888 1 5 47 7 5974. 4083. 1363. o
7889 3 7 -47 5 5962. 6351. 907. o
7889 2 5 47 7 5962. 6351. 907. o
7889 1 -5 47 -7 5962. 6351. 907. o
7890 2 4 48 -7 16. 454. 454. <
7890 1 -4 48 7 16. 454. 454. <
7891 2 -4 48 7 17. 0. 907. <
7891 1 4 48 -7 17. 0. 907. <
7892 2 2 48 -7 278. 454. 454. <
7892 1 -2 48 7 278. 454. 454. <
7893 2 -2 48 7 276. 907. 453. <
7893 1 2 48 -7 276. 907. 453. <
7894 2 0 48 -7 2. 1361. 907. <
7894 1 0 48 7 2. 1361. 907. <
7895 2 0 48 7 2. -454. 454. <
7895 1 0 48 -7 2. -454. 454. <
7896 2 -2 48 -7 276. -907. 453. <
7896 1 2 48 7 276. -907. 453. <
7897 2 2 48 7 278. 1361. 453. o
7897 1 -2 48 -7 278. 1361. 453. o
7898 2 -4 48 -7 17. -907. 907. <
7898 1 4 48 7 17. -907. 907. <
7899 2 4 48 7 16. 454. 454. <
7899 1 -4 48 -7 16. 454. 454. <
7900 3 -7 -49 5 16220. 15424. 911. o
7900 2 5 49 -7 16220. 15424. 911. o
7900 1 -5 49 7 16220. 15424. 911. o
7901 3 7 -49 -5 16174. 17239. 902. o
7901 2 -5 49 7 16174. 17239. 902. o
7901 1 5 49 -7 16174. 17239. 902. o
7902 3 -7 -49 3 23790. 24951. 899. o
7902 2 3 49 -7 23790. 24951. 899. o
7902 1 -3 49 7 23790. 24951. 899. o
7903 3 7 -49 -3 23907. 16785. 947. o
7903 2 -3 49 7 23907. 16785. 947. o
7903 1 3 49 -7 23907. 16785. 947. o
7904 3 -7 -49 1 38900. 40375. 890. o
7904 2 1 49 -7 38900. 40375. 890. o
7904 1 -1 49 7 38900. 40375. 890. o
7905 3 7 -49 -1 38821. 39922. 1352. o
7905 2 -1 49 7 38821. 39922. 1352. o
7905 1 1 49 -7 38821. 39922. 1352. o
7906 3 -7 -49 -1 38799. 33117. 1399. o
7906 2 -1 49 -7 38799. 33117. 1399. o
7906 1 1 49 7 38799. 33117. 1399. o
7907 3 7 -49 1 38922. 41283. 879. o
7907 2 1 49 7 38922. 41283. 879. o
7907 1 -1 49 -7 38922. 41283. 879. o
7908 3 -7 -49 -3 23868. 20868. 926. o
7908 2 -3 49 -7 23868. 20868. 926. o
7908 1 3 49 7 23868. 20868. 926. o
7909 3 7 -49 3 23829. 24951. 899. o
7909 2 3 49 7 23829. 24951. 899. o
7909 1 -3 49 -7 23829. 24951. 899. o
7910 3 -7 -49 -5 16185. 5444. 1380. o
7910 2 -5 49 -7 16185. 5444. 1380. o
7910 1 5 49 7 16185. 5444. 1380. o
7911 3 7 -49 5 16209. 24951. 1786. o
7911 2 5 49 7 16209. 24951. 1786. o
7911 1 -5 49 -7 16209. 24951. 1786. o
7912 2 4 50 -7 18. 907. 453. <
7912 1 -4 50 7 18. 907. 453. <
7913 2 -4 50 7 17. 0. 454. <
7913 1 4 50 -7 17. 0. 454. <
7914 2 2 50 -7 13. 0. 454. <
7914 1 -2 50 7 13. 0. 454. <
7915 2 -2 50 7 13. 454. 907. <
7915 1 2 50 -7 13. 454. 907. <
7916 2 0 50 -7 125. 907. 907. <
7916 1 0 50 7 125. 907. 907. <
7917 2 0 50 7 125. 0. 454. <
7917 1 0 50 -7 125. 0. 454. <
7918 2 -2 50 -7 13. 0. 454. <
7918 1 2 50 7 13. 0. 454. <
7919 2 2 50 7 13. 454. 907. <
7919 1 -2 50 -7 13. 454. 907. <
7920 2 -4 50 -7 17. 907. 907. <
7920 1 4 50 7 17. 907. 907. <
7921 2 4 50 7 18. 907. 453. <
7921 1 -4 50 -7 18. 907. 453. <
7922 3 -7 -51 5 605. 1361. 907. <
7922 2 5 51 -7 605. 1361. 907. <
7922 1 -5 51 7 605. 1361. 907. <
7923 3 7 -51 -5 610. 454. 907. <
7923 2 -5 51 7 610. 454. 907. <
7923 1 5 51 -7 610. 454. 907. <
7924 3 -7 -51 3 192. 1815. 452. o
7924 2 3 51 -7 192. 1815. 452. o
7924 1 -3 51 7 192. 1815. 452. o
7925 3 7 -51 -3 199. 454. 454. <
7925 2 -3 51 7 199. 454. 454. <
7925 1 3 51 -7 199. 454. 454. <
7926 3 -7 -51 1 531. 907. 453. <
7926 2 1 51 -7 531. 907. 453. <
7926 1 -1 51 7 531. 907. 453. <
7927 3 7 -51 -1 539. 454. 907. <
7927 2 -1 51 7 539. 454. 907. <
7927 1 1 51 -7 539. 454. 907. <
7928 3 -7 -51 -1 533. -907. 453. <
7928 2 -1 51 -7 533. -907. 453. <
7928 1 1 51 7 533. -907. 453. <
7929 3 7 -51 1 537. -907. 907. <
7929 2 1 51 7 537. -907. 907. <
7929 1 -1 51 -7 537. -907. 907. <
7930 3 -7 -51 -3 196. -907. 453. <
7930 2 -3 51 -7 196. -907. 453. <
7930 1 3 51 7 196. -907. 453. <
7931 3 7 -51 3 195. -907. 907. <
7931 2 3 51 7 195. -907. 907. <
7931 1 -3 51 -7 195. -907. 907. <
7932 3 -7 -51 -5 608. -907. 907. <
7932 2 -5 51 -7 608. -907. 907. <
7932 1 5 51 7 608. -907. 907. <
7933 3 7 -51 5 607. 1361. 1361. <
7933 2 5 51 7 607. 1361. 1361. <
7933 1 -5 51 -7 607. 1361. 1361. <
7934 2 4 52 -7 184. 0. 454. <
7934 1 -4 52 7 184. 0. 454. <
7935 2 -4 52 7 182. 1815. 907. <
7935 1 4 52 -7 182. 1815. 907. <
7936 2 2 52 -7 40. -454. 454. <
7936 1 -2 52 7 40. -454. 454. <
7937 2 -2 52 7 41. 1361. 907. <
7937 1 2 52 -7 41. 1361. 907. <
7938 2 0 52 -7 726. 1815. 453. o
7938 1 0 52 7 726. 1815. 453. o
7939 2 0 52 7 726. 907. 454. <
7939 1 0 52 -7 726. 907. 454. <
7940 2 -2 52 -7 41. 0. 907. <
7940 1 2 52 7 41. 0. 907. <
7941 2 2 52 7 40. 0. 454. <
7941 1 -2 52 -7 40. 0. 454. <
7942 2 -4 52 -7 182. 1815. 1361. <
7942 1 4 52 7 182. 1815. 1361. <
7943 2 4 52 7 184. 0. 454. <
7943 1 -4 52 -7 184. 0. 454. <
7944 3 -7 -53 5 33. 907. 907. <
7944 2 5 53 -7 33. 907. 907. <
7944 1 -5 53 7 33. 907. 907. <
7945 3 7 -53 -5 32. 454. 907. <
7945 2 -5 53 7 32. 454. 907. <
7945 1 5 53 -7 32. 454. 907. <
7946 3 -7 -53 3 157. 1361. 453. o
7946 2 3 53 -7 157. 1361. 453. o
7946 1 -3 53 7 157. 1361. 453. o
7947 3 7 -53 -3 158. -907. 453. <
7947 2 -3 53 7 158. -907. 453. <
7947 1 3 53 -7 158. -907. 453. <
7948 3 -7 -53 1 227. 454. 454. <
7948 2 1 53 -7 227. 454. 454. <
7948 1 -1 53 7 227. 454. 454. <
7949 3 7 -53 -1 223. 1361. 453. o
7949 2 -1 53 7 223. 1361. 453. o
7949 1 1 53 -7 223. 1361. 453. o
7950 3 -7 -53 -1 223. 2268. 906. o
7950 2 -1 53 -7 223. 2268. 906. o
7950 1 1 53 7 223. 2268. 906. o
7951 3 7 -53 1 227. 454. 454. <
7951 2 1 53 7 227. 454. 454. <
7951 1 -1 53 -7 227. 454. 454. <
7952 3 -7 -53 -3 158. 1815. 452. o
7952 2 -3 53 -7 158. 1815. 452. o
7952 1 3 53 7 158. 1815. 452. o
7953 3 7 -53 3 158. 0. 454. <
7953 2 3 53 7 158. 0. 454. <
7953 1 -3 53 -7 158. 0. 454. <
7954 3 -7 -53 -5 32. 0. 1361. <
7954 2 -5 53 -7 32. 0. 1361. <
7954 1 5 53 7 32. 0. 1361. <
7955 3 7 -53 5 33. 454. 1361. <
7955 2 5 53 7 33. 454. 1361. <
7955 1 -5 53 -7 33. 454. 1361. <
7956 2 4 54 -7 1412. 907. 454. <
7956 1 -4 54 7 1412. 907. 454. <
7957 2 -4 54 7 1417. 2268. 907. o
7957 1 4 54 -7 1417. 2268. 907. o
7958 2 2 54 -7 91. 0. 454. <
7958 1 -2 54 7 91. 0. 454. <
7959 2 -2 54 7 90. 1361. 907. <
7959 1 2 54 -7 90. 1361. 907. <
7960 2 0 54 -7 4433. 3176. 456. o
7960 1 0 54 7 4433. 3176. 456. o
7961 2 0 54 7 4433. 4537. 453. o
7961 1 0 54 -7 4433. 4537. 453. o
7962 2 -2 54 -7 90. 2268. 906. o
7962 1 2 54 7 90. 2268. 906. o
7963 2 2 54 7 91. -454. 454. <
7963 1 -2 54 -7 91. -454. 454. <
7964 2 -4 54 -7 1417. 1815. 453. o
7964 1 4 54 7 1417. 1815. 453. o
7965 2 4 54 7 1412. 907. 907. <
7965 1 -4 54 -7 1412. 907. 907. <
7966 3 -7 -55 5 200. 2722. 906. o
7966 2 5 55 -7 200. 2722. 906. o
7966 1 -5 55 7 200. 2722. 906. o
7967 3 7 -55 -5 200. 454. 907. <
7967 2 -5 55 7 200. 454. 907. <
7967 1 5 55 -7 200. 454. 907. <
7968 3 -7 -55 3 512. 454. 454. <
7968 2 3 55 -7 512. 454. 454. <
7968 1 -3 55 7 512. 454. 454. <
7969 3 7 -55 -3 508. 907. 907. <
7969 2 -3 55 7 508. 907. 907. <
7969 1 3 55 -7 508. 907. 907. <
7970 3 -7 -55 1 518. 907. 453. <
7970 2 1 55 -7 518. 907. 453. <
7970 1 -1 55 7 518. 907. 453. <
7971 3 7 -55 -1 521. -907. 907. <
7971 2 -1 55 7 521. -907. 907. <
7971 1 1 55 -7 521. -907. 907. <
7972 3 -7 -55 -1 522. 2268. 906. o
7972 2 -1 55 -7 522. 2268. 906. o
7972 1 1 55 7 522. 2268. 906. o
7973 3 7 -55 1 517. 454. 454. <
7973 2 1 55 7 517. 454. 454. <
7973 1 -1 55 -7 517. 454. 454. <
7974 3 -7 -55 -3 507. -907. 907. <
7974 2 -3 55 -7 507. -907. 907. <
7974 1 3 55 7 507. -907. 907. <
7975 3 7 -55 3 512. 2722. 906. o
7975 2 3 55 7 512. 2722. 906. o
7975 1 -3 55 -7 512. 2722. 906. o
7976 3 -7 -55 -5 201. -907. 907. <
7976 2 -5 55 -7 201. -907. 907. <
7976 1 5 55 7 201. -907. 907. <
7977 3 7 -55 5 200. 454. 1361. <
7977 2 5 55 7 200. 454. 1361. <
7977 1 -5 55 -7 200. 454. 1361. <
7978 2 4 56 -7 1578. 907. 908. <
7978 1 -4 56 7 1578. 907. 908. <
7979 2 -4 56 7 1571. -454. 907. <
7979 1 4 56 -7 1571. -454. 907. <
7980 2 2 56 -7 223. 907. 453. <
7980 1 -2 56 7 223. 907. 453. <
7981 2 -2 56 7 224. 454. 907. <
7981 1 2 56 -7 224. 454. 907. <
7982 2 0 56 -7 5858. 3176. 911. o
7982 1 0 56 7 5858. 3176. 911. o
7983 2 0 56 7 5858. 4537. 458. o
7983 1 0 56 -7 5858. 4537. 458. o
7984 2 -2 56 -7 224. -2722. 906. <
7984 1 2 56 7 224. -2722. 906. <
7985 2 2 56 7 223. 454. 907. <
7985 1 -2 56 -7 223. 454. 907. <
7986 2 -4 56 -7 1571. 1361. 907. <
7986 1 4 56 7 1571. 1361. 907. <
7987 2 4 56 7 1578. 2722. 907. o
7987 1 -4 56 -7 1578. 2722. 907. o
7988 3 -7 -57 3 1269. 1361. 454. o
7988 2 3 57 -7 1269. 1361. 454. o
7988 1 -3 57 7 1269. 1361. 454. o
7989 3 7 -57 -3 1266. 3176. 1360. o
7989 2 -3 57 7 1266. 3176. 1360. o
7989 1 3 57 -7 1266. 3176. 1360. o
7990 3 -7 -57 1 1603. 454. 454. <
7990 2 1 57 -7 1603. 454. 454. <
7990 1 -1 57 7 1603. 454. 454. <
7991 3 7 -57 -1 1599. -454. 907. <
7991 2 -1 57 7 1599. -454. 907. <
7991 1 1 57 -7 1599. -454. 907. <
7992 3 -7 -57 -1 1598. 2722. 452. o
7992 2 -1 57 -7 1598. 2722. 452. o
7992 1 1 57 7 1598. 2722. 452. o
7993 3 7 -57 1 1604. 907. 454. <
7993 2 1 57 7 1604. 907. 454. <
7993 1 -1 57 -7 1604. 907. 454. <
7994 3 -7 -57 -3 1266. -1815. 1360. <
7994 2 -3 57 -7 1266. -1815. 1360. <
7994 1 3 57 7 1266. -1815. 1360. <
7995 3 7 -57 3 1268. 2722. 906. o
7995 2 3 57 7 1268. 2722. 906. o
7995 1 -3 57 -7 1268. 2722. 906. o
7996 2 4 58 -7 48. 907. 907. <
7996 1 -4 58 7 48. 907. 907. <
7997 2 -4 58 7 48. 454. 907. <
7997 1 4 58 -7 48. 454. 907. <
7998 2 2 58 -7 49. -907. 453. <
7998 1 -2 58 7 49. -907. 453. <
7999 2 -2 58 7 48. -907. 907. <
7999 1 2 58 -7 48. -907. 907. <
8000 2 0 58 -7 215. -454. 907. <
8000 1 0 58 7 215. -454. 907. <
8001 2 0 58 7 215. 1361. 453. o
8001 1 0 58 -7 215. 1361. 453. o
8002 2 -2 58 -7 48. -454. 907. <
8002 1 2 58 7 48. -454. 907. <
8003 2 2 58 7 49. 454. 454. <
8003 1 -2 58 -7 49. 454. 454. <
8004 2 -4 58 -7 48. 1361. 907. <
8004 1 4 58 7 48. 1361. 907. <
8005 2 4 58 7 48. -907. 1361. <
8005 1 -4 58 -7 48. -907. 1361. <
8006 3 -7 -59 3 2301. 1815. 908. <
8006 2 3 59 -7 2301. 1815. 908. <
8006 1 -3 59 7 2301. 1815. 908. <
8007 3 7 -59 -3 2282. 1361. 908. <
8007 2 -3 59 7 2282. 1361. 908. <
8007 1 3 59 -7 2282. 1361. 908. <
8008 3 -7 -59 1 2645. 1815. 455. o
8008 2 1 59 -7 2645. 1815. 455. o
8008 1 -1 59 7 2645. 1815. 455. o
8009 3 7 -59 -1 2634. 3629. 452. o
8009 2 -1 59 7 2634. 3629. 452. o
8009 1 1 59 -7 2634. 3629. 452. o
8010 3 -7 -59 -1 2634. 2722. 454. o
8010 2 -1 59 -7 2634. 2722. 454. o
8010 1 1 59 7 2634. 2722. 454. o
8011 3 7 -59 1 2645. 3629. 452. o
8011 2 1 59 7 2645. 3629. 452. o
8011 1 -1 59 -7 2645. 3629. 452. o
8012 3 -7 -59 -3 2284. 454. 1361. <
8012 2 -3 59 -7 2284. 454. 1361. <
8012 1 3 59 7 2284. 454. 1361. <
8013 3 7 -59 3 2299. 2722. 907. o
8013 2 3 59 7 2299. 2722. 907. o
8013 1 -3 59 -7 2299. 2722. 907. o
8014 2 4 60 -7 27. 1815. 907. <
8014 1 -4 60 7 27. 1815. 907. <
8015 2 -4 60 7 28. -907. 907. <
8015 1 4 60 -7 28. -907. 907. <
8016 2 2 60 -7 15. 0. 454. <
8016 1 -2 60 7 15. 0. 454. <
8017 2 -2 60 7 15. 0. 1361. <
8017 1 2 60 -7 15. 0. 1361. <
8018 2 0 60 -7 1. 907. 453. <
8018 1 0 60 7 1. 907. 453. <
8019 2 0 60 7 1. 907. 453. <
8019 1 0 60 -7 1. 907. 453. <
8020 2 -2 60 -7 15. 1361. 1361. <
8020 1 2 60 7 15. 1361. 1361. <
8021 2 2 60 7 15. 2268. 906. o
8021 1 -2 60 -7 15. 2268. 906. o
8022 2 -4 60 -7 28. 454. 454. <
8022 1 4 60 7 28. 454. 454. <
8023 2 4 60 7 27. 0. 1361. <
8023 1 -4 60 -7 27. 0. 1361. <
8024 3 -7 -61 3 16107. 13610. 918. o
8024 2 3 61 -7 16107. 13610. 918. o
8024 1 -3 61 7 16107. 13610. 918. o
8025 3 7 -61 -3 16105. 14971. 912. o
8025 2 -3 61 7 16105. 14971. 912. o
8025 1 3 61 -7 16105. 14971. 912. o
8026 3 -7 -61 1 26506. 30849. 869. o
8026 2 1 61 -7 26506. 30849. 869. o
8026 1 -1 61 7 26506. 30849. 869. o
8027 3 7 -61 -1 26477. 29034. 886. o
8027 2 -1 61 7 26477. 29034. 886. o
8027 1 1 61 -7 26477. 29034. 886. o
8028 3 -7 -61 -1 26490. 27219. 902. o
8028 2 -1 61 -7 26490. 27219. 902. o
8028 1 1 61 7 26490. 27219. 902. o
8029 3 7 -61 1 26493. 30849. 869. o
8029 2 1 61 7 26493. 30849. 869. o
8029 1 -1 61 -7 26493. 30849. 869. o
8030 3 -7 -61 -3 16110. 12702. 1370. o
8030 2 -3 61 -7 16110. 12702. 1370. o
8030 1 3 61 7 16110. 12702. 1370. o
8031 3 7 -61 3 16101. 21322. 1341. o
8031 2 3 61 7 16101. 21322. 1341. o
8031 1 -3 61 -7 16101. 21322. 1341. o
8032 2 2 62 -7 8. -454. 454. <
8032 1 -2 62 7 8. -454. 454. <
8033 2 -2 62 7 9. 0. 907. <
8033 1 2 62 -7 9. 0. 907. <
8034 2 0 62 -7 3. 0. 454. <
8034 1 0 62 7 3. 0. 454. <
8035 2 0 62 7 3. 1815. 452. o
8035 1 0 62 -7 3. 1815. 452. o
8036 2 -2 62 -7 9. 2268. 1360. <
8036 1 2 62 7 9. 2268. 1360. <
8037 2 2 62 7 8. -907. 453. <
8037 1 -2 62 -7 8. -907. 453. <
8038 3 -7 -63 3 299. -907. 907. <
8038 2 3 63 -7 299. -907. 907. <
8038 1 -3 63 7 299. -907. 907. <
8039 3 7 -63 -3 296. -907. 907. <
8039 2 -3 63 7 296. -907. 907. <
8039 1 3 63 -7 296. -907. 907. <
8040 3 -7 -63 1 326. 454. 454. <
8040 2 1 63 -7 326. 454. 454. <
8040 1 -1 63 7 326. 454. 454. <
8041 3 7 -63 -1 320. 907. 907. <
8041 2 -1 63 7 320. 907. 907. <
8041 1 1 63 -7 320. 907. 907. <
8042 3 -7 -63 -1 323. 0. 907. <
8042 2 -1 63 -7 323. 0. 907. <
8042 1 1 63 7 323. 0. 907. <
8043 3 7 -63 1 323. -907. 453. <
8043 2 1 63 7 323. -907. 453. <
8043 1 -1 63 -7 323. -907. 453. <
8044 3 -7 -63 -3 298. 1815. 1361. <
8044 2 -3 63 -7 298. 1815. 1361. <
8044 1 3 63 7 298. 1815. 1361. <
8045 3 7 -63 3 297. 1361. 907. <
8045 2 3 63 7 297. 1361. 907. <
8045 1 -3 63 -7 297. 1361. 907. <
8046 2 2 64 -7 130. 454. 454. <
8046 1 -2 64 7 130. 454. 454. <
8047 2 -2 64 7 130. -454. 907. <
8047 1 2 64 -7 130. -454. 907. <
8048 2 0 64 -7 1. 907. 453. <
8048 1 0 64 7 1. 907. 453. <
8049 2 0 64 7 1. 907. 453. <
8049 1 0 64 -7 1. 907. 453. <
8050 2 -2 64 -7 130. -454. 1361. <
8050 1 2 64 7 130. -454. 1361. <
8051 2 2 64 7 130. 907. 907. <
8051 1 -2 64 -7 130. 907. 907. <
8052 3 -7 -65 1 82. 1361. 453. o
8052 2 1 65 -7 82. 1361. 453. o
8052 1 -1 65 7 82. 1361. 453. o
8053 3 7 -65 -1 82. -454. 907. <
8053 2 -1 65 7 82. -454. 907. <
8053 1 1 65 -7 82. -454. 907. <
8054 3 -7 -65 -1 82. 907. 907. <
8054 2 -1 65 -7 82. 907. 907. <
8054 1 1 65 7 82. 907. 907. <
8055 3 7 -65 1 82. 2722. 451. o
8055 2 1 65 7 82. 2722. 451. o
8055 1 -1 65 -7 82. 2722. 451. o
8056 2 2 66 -7 738. 0. 454. <
8056 1 -2 66 7 738. 0. 454. <
8057 2 -2 66 7 737. 907. 907. <
8057 1 2 66 -7 737. 907. 907. <
8058 2 0 66 -7 97. 1815. 452. o
8058 1 0 66 7 97. 1815. 452. o
8059 2 0 66 7 97. -454. 454. <
8059 1 0 66 -7 97. -454. 454. <
8060 2 -2 66 -7 737. 454. 907. <
8060 1 2 66 7 737. 454. 907. <
8061 2 2 66 7 738. 1361. 907. <
8061 1 -2 66 -7 738. 1361. 907. <
8062 3 -7 -67 1 468. -454. 907. <
8062 2 1 67 -7 468. -454. 907. <
8062 1 -1 67 7 468. -454. 907. <
8063 3 7 -67 -1 471. 3629. 905. o
8063 2 -1 67 7 471. 3629. 905. o
8063 1 1 67 -7 471. 3629. 905. o
8064 3 -7 -67 -1 471. -454. 454. <
8064 2 -1 67 -7 471. -454. 454. <
8064 1 1 67 7 471. -454. 454. <
8065 3 7 -67 1 468. 454. 454. <
8065 2 1 67 7 468. 454. 454. <
8065 1 -1 67 -7 468. 454. 454. <
8066 2 0 68 -7 269. -907. 907. <
8066 1 0 68 7 269. -907. 907. <
8067 2 0 68 7 269. 907. 907. <
8067 1 0 68 -7 269. 907. 907. <
8068 3 -7 -69 1 1154. 907. 907. <
8068 2 1 69 -7 1154. 907. 907. <
8068 1 -1 69 7 1154. 907. 907. <
8069 3 7 -69 -1 1153. 1815. 907. <
8069 2 -1 69 7 1153. 1815. 907. <
8069 1 1 69 -7 1153. 1815. 907. <
8070 3 -7 -69 -1 1154. 454. 907. <
8070 2 -1 69 -7 1154. 454. 907. <
8070 1 1 69 7 1154. 454. 907. <
8071 3 7 -69 1 1153. 454. 1361. <
8071 2 1 69 7 1153. 454. 1361. <
8071 1 -1 69 -7 1153. 454. 1361. <
8072 3 -8 0 6 3856. 1815. 909. <
8072 2 6 0 -8 3856. 1815. 909. <
8072 1 -6 0 8 3856. 1815. 909. <
8073 3 8 0 -6 4448. 907. 909. <
8073 2 -6 0 8 4448. 907. 909. <
8073 1 6 0 -8 4448. 907. 909. <
8074 3 8 0 6 4068. 0. 909. <
8074 2 6 0 8 4068. 0. 909. <
8074 1 -6 0 -8 4068. 0. 909. <
8075 2 7 1 -8 133. -454. 907. <
8075 1 -7 1 8 133. -454. 907. <
8076 2 -7 1 8 134. 907. 453. <
8076 1 7 1 -8 134. 907. 453. <
8077 2 5 1 -8 116. -907. 453. <
8077 1 -5 1 8 116. -907. 453. <
8078 2 -5 1 8 114. -454. 454. <
8078 1 5 1 -8 114. -454. 454. <
8079 2 3 1 -8 140. 907. 453. <
8079 1 -3 1 8 140. 907. 453. <
8080 2 1 1 -8 137. 454. 454. <
8080 1 -1 1 8 137. 454. 454. <
8081 2 5 1 8 116. 907. 453. <
8081 1 -5 1 -8 116. 907. 453. <
8082 2 -7 1 -8 134. 907. 453. <
8082 1 7 1 8 134. 907. 453. <
8083 2 7 1 8 133. -907. 907. <
8083 1 -7 1 -8 133. -907. 907. <
8084 3 -8 -2 6 602. -454. 454. <
8084 2 6 2 -8 602. -454. 454. <
8084 1 -6 2 8 602. -454. 454. <
8085 3 8 -2 -6 698. 1361. 453. o
8085 2 -6 2 8 698. 1361. 453. o
8085 1 6 2 -8 698. 1361. 453. o
8086 3 -8 -2 4 18791. 4537. 1387. o
8086 2 4 2 -8 18791. 4537. 1387. o
8086 1 -4 2 8 18791. 4537. 1387. o
8087 3 -8 -2 2 4317. 4537. 907. o
8087 2 2 2 -8 4317. 4537. 907. o
8087 1 -2 2 8 4317. 4537. 907. o
8088 3 8 -2 -2 4485. 6351. 447. o
8088 2 -2 2 8 4485. 6351. 447. o
8088 1 2 2 -8 4485. 6351. 447. o
8089 3 -8 -2 0 33348. 31302. 926. o
8089 2 0 2 -8 33348. 31302. 926. o
8089 1 0 2 8 33348. 31302. 926. o
8090 3 8 -2 2 4400. 5444. 906. o
8090 2 2 2 8 4400. 5444. 906. o
8090 1 -2 2 -8 4400. 5444. 906. o
8091 3 -8 -2 -6 653. 1361. 907. <
8091 2 -6 2 -8 653. 1361. 907. <
8091 1 6 2 8 653. 1361. 907. <
8092 3 8 -2 6 647. -907. 453. <
8092 2 6 2 8 647. -907. 453. <
8092 1 -6 2 -8 647. -907. 453. <
8093 2 7 3 -8 88. 907. 453. <
8093 1 -7 3 8 88. 907. 453. <
8094 2 -7 3 8 87. -907. 453. <
8094 1 7 3 -8 87. -907. 453. <
8095 2 5 3 -8 141. 907. 453. <
8095 1 -5 3 8 141. 907. 453. <
8096 2 -5 3 8 142. -454. 907. <
8096 1 5 3 -8 142. -454. 907. <
8097 2 3 3 -8 98. 907. 907. <
8097 1 -3 3 8 98. 907. 907. <
8098 2 -1 3 8 83. 454. 454. <
8098 1 1 3 -8 83. 454. 454. <
8099 2 3 3 8 98. -2722. 906. <
8099 1 -3 3 -8 98. -2722. 906. <
8100 2 -5 3 -8 142. 1361. 907. <
8100 1 5 3 8 142. 1361. 907. <
8101 2 5 3 8 141. 1815. 452. o
8101 1 -5 3 -8 141. 1815. 452. o
8102 2 -7 3 -8 87. -454. 454. <
8102 1 7 3 8 87. -454. 454. <
8103 2 7 3 8 88. 454. 454. <
8103 1 -7 3 -8 88. 454. 454. <
8104 3 -8 -4 6 138. 907. 453. <
8104 2 6 4 -8 138. 907. 453. <
8104 1 -6 4 8 138. 907. 453. <
8105 3 8 -4 -6 153. 454. 454. <
8105 2 -6 4 8 153. 454. 454. <
8105 1 6 4 -8 153. 454. 454. <
8106 3 8 -4 2 574. -454. 454. <
8106 2 2 4 8 574. -454. 454. <
8106 1 -2 4 -8 574. -454. 454. <
8107 3 -8 -4 -6 153. 1815. 452. o
8107 2 -6 4 -8 153. 1815. 452. o
8107 1 6 4 8 153. 1815. 452. o
8108 3 8 -4 6 139. 907. 453. <
8108 2 6 4 8 139. 907. 453. <
8108 1 -6 4 -8 139. 907. 453. <
8109 2 7 5 -8 249. 907. 453. <
8109 1 -7 5 8 249. 907. 453. <
8110 2 -7 5 8 252. 454. 454. <
8110 1 7 5 -8 252. 454. 454. <
8111 2 5 5 -8 83. 907. 453. <
8111 1 -5 5 8 83. 907. 453. <
8112 2 -5 5 8 82. 907. 907. <
8112 1 5 5 -8 82. 907. 907. <
8113 2 3 5 -8 1543. 1815. 907. <
8113 1 -3 5 8 1543. 1815. 907. <
8114 2 1 5 -8 1591. 1815. 453. o
8114 1 -1 5 8 1591. 1815. 453. o
8115 2 1 5 8 1591. 1361. 907. <
8115 1 -1 5 -8 1591. 1361. 907. <
8116 2 3 5 8 1543. 3176. 906. o
8116 1 -3 5 -8 1543. 3176. 906. o
8117 2 -5 5 -8 82. 0. 907. <
8117 1 5 5 8 82. 0. 907. <
8118 2 5 5 8 83. 454. 454. <
8118 1 -5 5 -8 83. 454. 454. <
8119 2 -7 5 -8 252. 0. 454. <
8119 1 7 5 8 252. 0. 454. <
8120 2 7 5 8 249. 907. 907. <
8120 1 -7 5 -8 249. 907. 907. <
8121 3 -8 -6 6 230. -454. 454. <
8121 2 6 6 -8 230. -454. 454. <
8121 1 -6 6 8 230. -454. 454. <
8122 3 8 -6 -6 262. 454. 907. <
8122 2 -6 6 8 262. 454. 907. <
8122 1 6 6 -8 262. 454. 907. <
8123 3 8 -6 0 27990. 27673. 910. o
8123 2 0 6 8 27990. 27673. 910. o
8123 1 0 6 -8 27990. 27673. 910. o
8124 3 8 -6 2 264. 454. 907. <
8124 2 2 6 8 264. 454. 907. <
8124 1 -2 6 -8 264. 454. 907. <
8125 3 -8 -6 -6 248. 907. 907. <
8125 2 -6 6 -8 248. 907. 907. <
8125 1 6 6 8 248. 907. 907. <
8126 3 8 -6 6 244. 454. 454. <
8126 2 6 6 8 244. 454. 454. <
8126 1 -6 6 -8 244. 454. 454. <
8127 2 7 7 -8 409. -907. 453. <
8127 1 -7 7 8 409. -907. 453. <
8128 2 -7 7 8 404. 907. 453. <
8128 1 7 7 -8 404. 907. 453. <
8129 2 5 7 -8 216. 907. 453. <
8129 1 -5 7 8 216. 907. 453. <
8130 2 -5 7 8 218. 907. 907. <
8130 1 5 7 -8 218. 907. 907. <
8131 2 -3 7 8 3732. 3629. 907. o
8131 1 3 7 -8 3732. 3629. 907. o
8132 2 3 7 8 3747. 1815. 909. <
8132 1 -3 7 -8 3747. 1815. 909. <
8133 2 -5 7 -8 218. 907. 907. <
8133 1 5 7 8 218. 907. 907. <
8134 2 5 7 8 216. 907. 453. <
8134 1 -5 7 -8 216. 907. 453. <
8135 2 -7 7 -8 404. -907. 453. <
8135 1 7 7 8 404. -907. 453. <
8136 2 7 7 8 409. 0. 907. <
8136 1 -7 7 -8 409. 0. 907. <
8137 3 -8 -8 6 81. 0. 454. <
8137 2 6 8 -8 81. 0. 454. <
8137 1 -6 8 8 81. 0. 454. <
8138 3 8 -8 -6 80. 454. 907. <
8138 2 -6 8 8 80. 454. 907. <
8138 1 6 8 -8 80. 454. 907. <
8139 3 8 -8 -4 7627. 13156. 889. o
8139 2 -4 8 8 7627. 13156. 889. o
8139 1 4 8 -8 7627. 13156. 889. o
8140 3 8 -8 -2 346. -454. 907. <
8140 2 -2 8 8 346. -454. 907. <
8140 1 2 8 -8 346. -454. 907. <
8141 3 -8 -8 0 13555. 15424. 899. o
8141 2 0 8 -8 13555. 15424. 899. o
8141 1 0 8 8 13555. 15424. 899. o
8142 3 -8 -8 -4 7609. 9527. 902. o
8142 2 -4 8 -8 7609. 9527. 902. o
8142 1 4 8 8 7609. 9527. 902. o
8143 3 8 -8 4 7643. 7258. 455. o
8143 2 4 8 8 7643. 7258. 455. o
8143 1 -4 8 -8 7643. 7258. 455. o
8144 3 -8 -8 -6 85. -1361. 907. <
8144 2 -6 8 -8 85. -1361. 907. <
8144 1 6 8 8 85. -1361. 907. <
8145 3 8 -8 6 75. -907. 453. <
8145 2 6 8 8 75. -907. 453. <
8145 1 -6 8 -8 75. -907. 453. <
8146 2 7 9 -8 21. 907. 453. <
8146 1 -7 9 8 21. 907. 453. <
8147 2 -7 9 8 21. -454. 454. <
8147 1 7 9 -8 21. -454. 454. <
8148 2 5 9 -8 138. -454. 454. <
8148 1 -5 9 8 138. -454. 454. <
8149 2 -5 9 8 137. -454. 907. <
8149 1 5 9 -8 137. -454. 907. <
8150 2 -1 9 8 204. 454. 454. <
8150 1 1 9 -8 204. 454. 454. <
8151 2 3 9 8 306. 454. 454. <
8151 1 -3 9 -8 306. 454. 454. <
8152 2 -5 9 -8 137. 454. 907. <
8152 1 5 9 8 137. 454. 907. <
8153 2 5 9 8 138. 1815. 452. o
8153 1 -5 9 -8 138. 1815. 452. o
8154 2 -7 9 -8 21. -454. 454. <
8154 1 7 9 8 21. -454. 454. <
8155 2 7 9 8 21. 907. 453. <
8155 1 -7 9 -8 21. 907. 453. <
8156 3 -8 -10 6 407. -454. 454. <
8156 2 6 10 -8 407. -454. 454. <
8156 1 -6 10 8 407. -454. 454. <
8157 3 8 -10 -6 448. 907. 453. <
8157 2 -6 10 8 448. 907. 453. <
8157 1 6 10 -8 448. 907. 453. <
8158 3 8 -10 -4 8471. 4990. 914. o
8158 2 -4 10 8 8471. 4990. 914. o
8158 1 4 10 -8 8471. 4990. 914. o
8159 3 8 -10 -2 1066. 1815. 907. <
8159 2 -2 10 8 1066. 1815. 907. <
8159 1 2 10 -8 1066. 1815. 907. <
8160 3 8 -10 4 8523. 9527. 905. o
8160 2 4 10 8 8523. 9527. 905. o
8160 1 -4 10 -8 8523. 9527. 905. o
8161 3 -8 -10 -6 424. 907. 907. <
8161 2 -6 10 -8 424. 907. 907. <
8161 1 6 10 8 424. 907. 907. <
8162 3 8 -10 6 430. 0. 454. <
8162 2 6 10 8 430. 0. 454. <
8162 1 -6 10 -8 430. 0. 454. <
8163 2 5 11 -8 146. 1361. 453. o
8163 1 -5 11 8 146. 1361. 453. o
8164 2 3 11 -8 957. 2268. 452. o
8164 1 -3 11 8 957. 2268. 452. o
8165 2 -3 11 -8 962. 454. 907. <
8165 1 3 11 8 962. 454. 907. <
8166 2 3 11 8 957. -907. 907. <
8166 1 -3 11 -8 957. -907. 907. <
8167 2 -5 11 -8 144. 1815. 452. o
8167 1 5 11 8 144. 1815. 452. o
8168 2 5 11 8 146. 1815. 452. o
8168 1 -5 11 -8 146. 1815. 452. o
8169 3 -8 -12 6 4410. 2268. 457. o
8169 2 6 12 -8 4410. 2268. 457. o
8169 1 -6 12 8 4410. 2268. 457. o
8170 3 8 -12 -6 4871. 5444. 906. o
8170 2 -6 12 8 4871. 5444. 906. o
8170 1 6 12 -8 4871. 5444. 906. o
8171 3 8 -12 -4 252873. 301227. 5838. o
8171 2 -4 12 8 252873. 301227. 5838. o
8171 1 4 12 -8 252873. 301227. 5838. o
8172 3 -8 -12 2 41295. 46273. 840. o
8172 2 2 12 -8 41295. 46273. 840. o
8172 1 -2 12 8 41295. 46273. 840. o
8173 3 -8 -12 0 586061. 554367. 3833. o
8173 2 0 12 -8 586061. 554367. 3833. o
8173 1 0 12 8 586061. 554367. 3833. o
8174 3 -8 -12 -2 41805. 48995. 803. o
8174 2 -2 12 -8 41805. 48995. 803. o
8174 1 2 12 8 41805. 48995. 803. o
8175 3 -8 -12 -6 4710. 3629. 456. o
8175 2 -6 12 -8 4710. 3629. 456. o
8175 1 6 12 8 4710. 3629. 456. o
8176 3 8 -12 6 4570. 2268. 909. o
8176 2 6 12 8 4570. 2268. 909. o
8176 1 -6 12 -8 4570. 2268. 909. o
8177 2 5 13 -8 24. 907. 453. <
8177 1 -5 13 8 24. 907. 453. <
8178 2 3 13 -8 87. 454. 454. <
8178 1 -3 13 8 87. 454. 454. <
8179 2 -3 13 8 86. -454. 454. <
8179 1 3 13 -8 86. -454. 454. <
8180 2 -3 13 -8 86. 907. 453. <
8180 1 3 13 8 86. 907. 453. <
8181 2 3 13 8 87. 907. 907. <
8181 1 -3 13 -8 87. 907. 907. <
8182 2 -5 13 -8 24. 1361. 907. <
8182 1 5 13 8 24. 1361. 907. <
8183 2 5 13 8 24. 454. 454. <
8183 1 -5 13 -8 24. 454. 454. <
8184 3 -8 -14 6 621. 454. 454. <
8184 2 6 14 -8 621. 454. 454. <
8184 1 -6 14 8 621. 454. 454. <
8185 3 8 -14 -6 708. 1361. 907. <
8185 2 -6 14 8 708. 1361. 907. <
8185 1 6 14 -8 708. 1361. 907. <
8186 3 -8 -14 2 2349. 3629. 906. o
8186 2 2 14 -8 2349. 3629. 906. o
8186 1 -2 14 8 2349. 3629. 906. o
8187 3 -8 -14 0 38138. 59429. 1122. o
8187 2 0 14 -8 38138. 59429. 1122. o
8187 1 0 14 8 38138. 59429. 1122. o
8188 3 -8 -14 -2 2364. 3176. 452. o
8188 2 -2 14 -8 2364. 3176. 452. o
8188 1 2 14 8 2364. 3176. 452. o
8189 3 -8 -14 -4 28245. 39014. 1284. o
8189 2 -4 14 -8 28245. 39014. 1284. o
8189 1 4 14 8 28245. 39014. 1284. o
8190 3 -8 -14 -6 667. 907. 907. <
8190 2 -6 14 -8 667. 907. 907. <
8190 1 6 14 8 667. 907. 907. <
8191 3 8 -14 6 662. -454. 454. <
8191 2 6 14 8 662. -454. 454. <
8191 1 -6 14 -8 662. -454. 454. <
8192 2 5 15 -8 473. 2722. 451. o
8192 1 -5 15 8 473. 2722. 451. o
8193 2 -5 15 8 476. 907. 453. <
8193 1 5 15 -8 476. 907. 453. <
8194 2 3 15 -8 189. 1361. 453. o
8194 1 -3 15 8 189. 1361. 453. o
8195 2 -3 15 8 188. 454. 907. <
8195 1 3 15 -8 188. 454. 907. <
8196 2 1 15 8 628. 454. 907. <
8196 1 -1 15 -8 628. 454. 907. <
8197 2 -3 15 -8 188. 907. 907. <
8197 1 3 15 8 188. 907. 907. <
8198 2 3 15 8 189. 907. 907. <
8198 1 -3 15 -8 189. 907. 907. <
8199 2 -5 15 -8 476. 454. 907. <
8199 1 5 15 8 476. 454. 907. <
8200 2 5 15 8 473. -454. 454. <
8200 1 -5 15 -8 473. -454. 454. <
8201 3 -8 -16 6 243. -907. 453. <
8201 2 6 16 -8 243. -907. 453. <
8201 1 -6 16 8 243. -907. 453. <
8202 3 8 -16 -6 265. 454. 907. <
8202 2 -6 16 8 265. 454. 907. <
8202 1 6 16 -8 265. 454. 907. <
8203 3 -8 -16 4 9910. 9527. 908. o
8203 2 4 16 -8 9910. 9527. 908. o
8203 1 -4 16 8 9910. 9527. 908. o
8204 3 -8 -16 2 883. 0. 907. <
8204 2 2 16 -8 883. 0. 907. <
8204 1 -2 16 8 883. 0. 907. <
8205 3 -8 -16 0 22621. 24044. 897. o
8205 2 0 16 -8 22621. 24044. 897. o
8205 1 0 16 8 22621. 24044. 897. o
8206 3 -8 -16 -2 925. 454. 454. <
8206 2 -2 16 -8 925. 454. 454. <
8206 1 2 16 8 925. 454. 454. <
8207 3 8 -16 2 870. -454. 907. <
8207 2 2 16 8 870. -454. 907. <
8207 1 -2 16 -8 870. -454. 907. <
8208 3 8 -16 4 9912. 9073. 910. o
8208 2 4 16 8 9912. 9073. 910. o
8208 1 -4 16 -8 9912. 9073. 910. o
8209 3 -8 -16 -6 260. 454. 907. <
8209 2 -6 16 -8 260. 454. 907. <
8209 1 6 16 8 260. 454. 907. <
8210 3 8 -16 6 247. -454. 454. <
8210 2 6 16 8 247. -454. 454. <
8210 1 -6 16 -8 247. -454. 454. <
8211 2 5 17 -8 1310. 454. 907. <
8211 1 -5 17 8 1310. 454. 907. <
8212 2 -5 17 8 1295. 907. 907. <
8212 1 5 17 -8 1295. 907. 907. <
8213 2 3 17 -8 1666. -454. 454. <
8213 1 -3 17 8 1666. -454. 454. <
8214 2 1 17 8 3571. 4537. 906. o
8214 1 -1 17 -8 3571. 4537. 906. o
8215 2 3 17 8 1666. 907. 908. <
8215 1 -3 17 -8 1666. 907. 908. <
8216 2 -5 17 -8 1295. 907. 454. <
8216 1 5 17 8 1295. 907. 454. <
8217 2 5 17 8 1310. 454. 454. <
8217 1 -5 17 -8 1310. 454. 454. <
8218 3 -8 -18 6 173. 907. 453. <
8218 2 6 18 -8 173. 907. 453. <
8218 1 -6 18 8 173. 907. 453. <
8219 3 8 -18 -6 195. 454. 907. <
8219 2 -6 18 8 195. 454. 907. <
8219 1 6 18 -8 195. 454. 907. <
8220 3 -8 -18 4 7624. 6805. 909. o
8220 2 4 18 -8 7624. 6805. 909. o
8220 1 -4 18 8 7624. 6805. 909. o
8221 3 8 -18 -4 7595. 7712. 907. o
8221 2 -4 18 8 7595. 7712. 907. o
8221 1 4 18 -8 7595. 7712. 907. o
8222 3 -8 -18 2 809. 907. 907. <
8222 2 2 18 -8 809. 907. 907. <
8222 1 -2 18 8 809. 907. 907. <
8223 3 -8 -18 0 22976. 23136. 451. o
8223 2 0 18 -8 22976. 23136. 451. o
8223 1 0 18 8 22976. 23136. 451. o
8224 3 -8 -18 -2 835. 907. 907. <
8224 2 -2 18 -8 835. 907. 907. <
8224 1 2 18 8 835. 907. 907. <
8225 3 8 -18 4 7609. 9073. 904. o
8225 2 4 18 8 7609. 9073. 904. o
8225 1 -4 18 -8 7609. 9073. 904. o
8226 3 -8 -18 -6 184. 454. 907. <
8226 2 -6 18 -8 184. 454. 907. <
8226 1 6 18 8 184. 454. 907. <
8227 3 8 -18 6 183. 454. 454. <
8227 2 6 18 8 183. 454. 454. <
8227 1 -6 18 -8 183. 454. 454. <
8228 2 5 19 -8 3147. 3176. 907. o
8228 1 -5 19 8 3147. 3176. 907. o
8229 2 -5 19 8 3163. 1361. 908. <
8229 1 5 19 -8 3163. 1361. 908. <
8230 2 3 19 -8 359. 454. 454. <
8230 1 -3 19 8 359. 454. 454. <
8231 2 1 19 -8 4720. 4537. 454. o
8231 1 -1 19 8 4720. 4537. 454. o
8232 2 3 19 8 359. 0. 907. <
8232 1 -3 19 -8 359. 0. 907. <
8233 2 -5 19 -8 3163. 2722. 454. o
8233 1 5 19 8 3163. 2722. 454. o
8234 2 5 19 8 3147. 1815. 455. o
8234 1 -5 19 -8 3147. 1815. 455. o
8235 3 -8 -20 6 197. -454. 454. <
8235 2 6 20 -8 197. -454. 454. <
8235 1 -6 20 8 197. -454. 454. <
8236 3 8 -20 -6 187. 1361. 907. <
8236 2 -6 20 8 187. 1361. 907. <
8236 1 6 20 -8 187. 1361. 907. <
8237 3 -8 -20 4 4321. 2722. 909. o
8237 2 4 20 -8 4321. 2722. 909. o
8237 1 -4 20 8 4321. 2722. 909. o
8238 3 -8 -20 2 2758. 1815. 908. <
8238 2 2 20 -8 2758. 1815. 908. <
8238 1 -2 20 8 2758. 1815. 908. <
8239 3 8 -20 -2 2736. 3629. 906. o
8239 2 -2 20 8 2736. 3629. 906. o
8239 1 2 20 -8 2736. 3629. 906. o
8240 3 -8 -20 0 12800. 11795. 461. o
8240 2 0 20 -8 12800. 11795. 461. o
8240 1 0 20 8 12800. 11795. 461. o
8241 3 -8 -20 -2 2763. 1815. 908. <
8241 2 -2 20 -8 2763. 1815. 908. <
8241 1 2 20 8 2763. 1815. 908. <
8242 3 8 -20 2 2731. 2722. 907. o
8242 2 2 20 8 2731. 2722. 907. o
8242 1 -2 20 -8 2731. 2722. 907. o
8243 3 -8 -20 -4 4322. 4083. 908. o
8243 2 -4 20 -8 4322. 4083. 908. o
8243 1 4 20 8 4322. 4083. 908. o
8244 3 8 -20 4 4336. 4990. 906. o
8244 2 4 20 8 4336. 4990. 906. o
8244 1 -4 20 -8 4336. 4990. 906. o
8245 3 -8 -20 -6 194. 454. 454. <
8245 2 -6 20 -8 194. 454. 454. <
8245 1 6 20 8 194. 454. 454. <
8246 3 8 -20 6 190. 454. 454. <
8246 2 6 20 8 190. 454. 454. <
8246 1 -6 20 -8 190. 454. 454. <
8247 2 5 21 -8 172. 907. 453. <
8247 1 -5 21 8 172. 907. 453. <
8248 2 -5 21 8 170. 0. 454. <
8248 1 5 21 -8 170. 0. 454. <
8249 2 3 21 -8 352. -454. 907. <
8249 1 -3 21 8 352. -454. 907. <
8250 2 -3 21 8 357. -907. 907. <
8250 1 3 21 -8 357. -907. 907. <
8251 2 1 21 -8 737. 1361. 907. <
8251 1 -1 21 8 737. 1361. 907. <
8252 2 -1 21 8 731. -454. 907. <
8252 1 1 21 -8 731. -454. 907. <
8253 2 -1 21 -8 731. 907. 907. <
8253 1 1 21 8 731. 907. 907. <
8254 2 -3 21 -8 357. -454. 454. <
8254 1 3 21 8 357. -454. 454. <
8255 2 3 21 8 352. 907. 907. <
8255 1 -3 21 -8 352. 907. 907. <
8256 2 -5 21 -8 170. -454. 454. <
8256 1 5 21 8 170. -454. 454. <
8257 2 5 21 8 172. 907. 453. <
8257 1 -5 21 -8 172. 907. 453. <
8258 3 -8 -22 6 346. 454. 454. <
8258 2 6 22 -8 346. 454. 454. <
8258 1 -6 22 8 346. 454. 454. <
8259 3 8 -22 -6 366. -454. 454. <
8259 2 -6 22 8 366. -454. 454. <
8259 1 6 22 -8 366. -454. 454. <
8260 3 -8 -22 4 2374. -454. 454. <
8260 2 4 22 -8 2374. -454. 454. <
8260 1 -4 22 8 2374. -454. 454. <
8261 3 8 -22 -4 2373. -454. 908. <
8261 2 -4 22 8 2373. -454. 908. <
8261 1 4 22 -8 2373. -454. 908. <
8262 3 -8 -22 2 3757. 3176. 908. o
8262 2 2 22 -8 3757. 3176. 908. o
8262 1 -2 22 8 3757. 3176. 908. o
8263 3 -8 -22 0 4111. 1361. 457. o
8263 2 0 22 -8 4111. 1361. 457. o
8263 1 0 22 8 4111. 1361. 457. o
8264 3 -8 -22 -2 3792. 4537. 452. o
8264 2 -2 22 -8 3792. 4537. 452. o
8264 1 2 22 8 3792. 4537. 452. o
8265 3 -8 -22 -4 2382. -454. 908. <
8265 2 -4 22 -8 2382. -454. 908. <
8265 1 4 22 8 2382. -454. 908. <
8266 3 8 -22 4 2365. -3176. 905. <
8266 2 4 22 8 2365. -3176. 905. <
8266 1 -4 22 -8 2365. -3176. 905. <
8267 3 -8 -22 -6 357. -454. 454. <
8267 2 -6 22 -8 357. -454. 454. <
8267 1 6 22 8 357. -454. 454. <
8268 3 8 -22 6 356. 1815. 907. <
8268 2 6 22 8 356. 1815. 907. <
8268 1 -6 22 -8 356. 1815. 907. <
8269 2 5 23 -8 249. 0. 454. <
8269 1 -5 23 8 249. 0. 454. <
8270 2 -5 23 8 247. -907. 907. <
8270 1 5 23 -8 247. -907. 907. <
8271 2 -3 23 8 277. 907. 453. <
8271 1 3 23 -8 277. 907. 453. <
8272 2 1 23 -8 219. -907. 907. <
8272 1 -1 23 8 219. -907. 907. <
8273 2 -1 23 8 215. 907. 907. <
8273 1 1 23 -8 215. 907. 907. <
8274 2 -1 23 -8 215. 907. 907. <
8274 1 1 23 8 215. 907. 907. <
8275 2 1 23 8 219. 907. 907. <
8275 1 -1 23 -8 219. 907. 907. <
8276 2 -3 23 -8 277. 0. 907. <
8276 1 3 23 8 277. 0. 907. <
8277 2 3 23 8 276. 907. 907. <
8277 1 -3 23 -8 276. 907. 907. <
8278 2 -5 23 -8 247. 907. 907. <
8278 1 5 23 8 247. 907. 907. <
8279 2 5 23 8 249. -454. 454. <
8279 1 -5 23 -8 249. -454. 454. <
8280 3 -8 -24 6 4491. 3629. 908. o
8280 2 6 24 -8 4491. 3629. 908. o
8280 1 -6 24 8 4491. 3629. 908. o
8281 3 8 -24 -6 4771. 3629. 909. o
8281 2 -6 24 8 4771. 3629. 909. o
8281 1 6 24 -8 4771. 3629. 909. o
8282 3 -8 -24 4 117978. 141541. 1270. o
8282 2 4 24 -8 117978. 141541. 1270. o
8282 1 -4 24 8 117978. 141541. 1270. o
8283 3 8 -24 -4 117592. 140633. 1288. o
8283 2 -4 24 8 117592. 140633. 1288. o
8283 1 4 24 -8 117592. 140633. 1288. o
8284 3 -8 -24 -6 4670. 4537. 454. o
8284 2 -6 24 -8 4670. 4537. 454. o
8284 1 6 24 8 4670. 4537. 454. o
8285 3 8 -24 6 4592. 4537. 454. o
8285 2 6 24 8 4592. 4537. 454. o
8285 1 -6 24 -8 4592. 4537. 454. o
8286 2 5 25 -8 126. 0. 454. <
8286 1 -5 25 8 126. 0. 454. <
8287 2 -5 25 8 127. 454. 454. <
8287 1 5 25 -8 127. 454. 454. <
8288 2 3 25 -8 246. 0. 454. <
8288 1 -3 25 8 246. 0. 454. <
8289 2 -3 25 8 244. 1361. 907. <
8289 1 3 25 -8 244. 1361. 907. <
8290 2 1 25 -8 481. 2268. 906. o
8290 1 -1 25 8 481. 2268. 906. o
8291 2 -1 25 8 484. -907. 907. <
8291 1 1 25 -8 484. -907. 907. <
8292 2 -1 25 -8 484. 907. 907. <
8292 1 1 25 8 484. 907. 907. <
8293 2 1 25 8 481. 0. 907. <
8293 1 -1 25 -8 481. 0. 907. <
8294 2 -3 25 -8 244. -907. 907. <
8294 1 3 25 8 244. -907. 907. <
8295 2 3 25 8 246. -907. 907. <
8295 1 -3 25 -8 246. -907. 907. <
8296 2 -5 25 -8 126. 907. 907. <
8296 1 5 25 8 126. 907. 907. <
8297 2 5 25 8 126. 0. 454. <
8297 1 -5 25 -8 126. 0. 454. <
8298 3 -8 -26 6 792. 454. 454. <
8298 2 6 26 -8 792. 454. 454. <
8298 1 -6 26 8 792. 454. 454. <
8299 3 8 -26 -6 870. -907. 907. <
8299 2 -6 26 8 870. -907. 907. <
8299 1 6 26 -8 870. -907. 907. <
8300 3 -8 -26 4 22160. 15424. 1384. o
8300 2 4 26 -8 22160. 15424. 1384. o
8300 1 -4 26 8 22160. 15424. 1384. o
8301 3 -8 -26 2 3580. 2722. 908. o
8301 2 2 26 -8 3580. 2722. 908. o
8301 1 -2 26 8 3580. 2722. 908. o
8302 3 8 -26 -2 3702. 3629. 907. o
8302 2 -2 26 8 3702. 3629. 907. o
8302 1 2 26 -8 3702. 3629. 907. o
8303 3 8 -26 2 3636. 4083. 907. o
8303 2 2 26 8 3636. 4083. 907. o
8303 1 -2 26 -8 3636. 4083. 907. o
8304 3 8 -26 4 22126. 6805. 1396. o
8304 2 4 26 8 22126. 6805. 1396. o
8304 1 -4 26 -8 22126. 6805. 1396. o
8305 3 -8 -26 -6 837. 907. 454. <
8305 2 -6 26 -8 837. 907. 454. <
8305 1 6 26 8 837. 907. 454. <
8306 3 8 -26 6 824. 907. 454. <
8306 2 6 26 8 824. 907. 454. <
8306 1 -6 26 -8 824. 907. 454. <
8307 2 5 27 -8 463. 454. 454. <
8307 1 -5 27 8 463. 454. 454. <
8308 2 -5 27 8 465. 1361. 453. o
8308 1 5 27 -8 465. 1361. 453. o
8309 2 3 27 -8 479. -454. 454. <
8309 1 -3 27 8 479. -454. 454. <
8310 2 -3 27 8 478. -907. 907. <
8310 1 3 27 -8 478. -907. 907. <
8311 2 1 27 -8 377. -454. 907. <
8311 1 -1 27 8 377. -454. 907. <
8312 2 -1 27 8 374. -454. 907. <
8312 1 1 27 -8 374. -454. 907. <
8313 2 -1 27 -8 374. -454. 907. <
8313 1 1 27 8 374. -454. 907. <
8314 2 1 27 8 377. -454. 907. <
8314 1 -1 27 -8 377. -454. 907. <
8315 2 -3 27 -8 478. 907. 453. <
8315 1 3 27 8 478. 907. 453. <
8316 2 3 27 8 479. 907. 453. <
8316 1 -3 27 -8 479. 907. 453. <
8317 2 -5 27 -8 465. 0. 907. <
8317 1 5 27 8 465. 0. 907. <
8318 2 5 27 8 463. 454. 454. <
8318 1 -5 27 -8 463. 454. 454. <
8319 3 -8 -28 6 200. -454. 454. <
8319 2 6 28 -8 200. -454. 454. <
8319 1 -6 28 8 200. -454. 454. <
8320 3 8 -28 -6 214. 907. 907. <
8320 2 -6 28 8 214. 907. 907. <
8320 1 6 28 -8 214. 907. 907. <
8321 3 -8 -28 4 4036. 4083. 454. o
8321 2 4 28 -8 4036. 4083. 454. o
8321 1 -4 28 8 4036. 4083. 454. o
8322 3 8 -28 -4 4009. 1361. 909. <
8322 2 -4 28 8 4009. 1361. 909. <
8322 1 4 28 -8 4009. 1361. 909. <
8323 3 -8 -28 2 456. 454. 454. <
8323 2 2 28 -8 456. 454. 454. <
8323 1 -2 28 8 456. 454. 454. <
8324 3 8 -28 -2 469. 454. 907. <
8324 2 -2 28 8 469. 454. 907. <
8324 1 2 28 -8 469. 454. 907. <
8325 3 8 -28 0 8042. 8166. 453. o
8325 2 0 28 8 8042. 8166. 453. o
8325 1 0 28 -8 8042. 8166. 453. o
8326 3 -8 -28 -2 470. 907. 453. <
8326 2 -2 28 -8 470. 907. 453. <
8326 1 2 28 8 470. 907. 453. <
8327 3 8 -28 2 455. -454. 907. <
8327 2 2 28 8 455. -454. 907. <
8327 1 -2 28 -8 455. -454. 907. <
8328 3 -8 -28 -4 4011. 1361. 909. <
8328 2 -4 28 -8 4011. 1361. 909. <
8328 1 4 28 8 4011. 1361. 909. <
8329 3 8 -28 4 4034. 3176. 455. o
8329 2 4 28 8 4034. 3176. 455. o
8329 1 -4 28 -8 4034. 3176. 455. o
8330 3 -8 -28 -6 210. 907. 453. <
8330 2 -6 28 -8 210. 907. 453. <
8330 1 6 28 8 210. 907. 453. <
8331 3 8 -28 6 204. 1361. 453. o
8331 2 6 28 8 204. 1361. 453. o
8331 1 -6 28 -8 204. 1361. 453. o
8332 2 5 29 -8 343. 0. 454. <
8332 1 -5 29 8 343. 0. 454. <
8333 2 -5 29 8 336. 907. 453. <
8333 1 5 29 -8 336. 907. 453. <
8334 2 3 29 -8 1235. 907. 454. <
8334 1 -3 29 8 1235. 907. 454. <
8335 2 -3 29 8 1250. 1815. 453. o
8335 1 3 29 -8 1250. 1815. 453. o
8336 2 1 29 -8 314. -454. 454. <
8336 1 -1 29 8 314. -454. 454. <
8337 2 -1 29 8 309. 0. 454. <
8337 1 1 29 -8 309. 0. 454. <
8338 2 -3 29 -8 1250. 1815. 453. o
8338 1 3 29 8 1250. 1815. 453. o
8339 2 3 29 8 1235. 907. 454. <
8339 1 -3 29 -8 1235. 907. 454. <
8340 2 -5 29 -8 336. -907. 907. <
8340 1 5 29 8 336. -907. 907. <
8341 2 5 29 8 343. -454. 454. <
8341 1 -5 29 -8 343. -454. 454. <
8342 3 -8 -30 6 204. 1815. 452. o
8342 2 6 30 -8 204. 1815. 452. o
8342 1 -6 30 8 204. 1815. 452. o
8343 3 8 -30 -6 212. 454. 454. <
8343 2 -6 30 8 212. 454. 454. <
8343 1 6 30 -8 212. 454. 454. <
8344 3 -8 -30 4 2573. 1815. 455. o
8344 2 4 30 -8 2573. 1815. 455. o
8344 1 -4 30 8 2573. 1815. 455. o
8345 3 8 -30 -4 2555. 3176. 453. o
8345 2 -4 30 8 2555. 3176. 453. o
8345 1 4 30 -8 2555. 3176. 453. o
8346 3 -8 -30 2 320. 1815. 907. <
8346 2 2 30 -8 320. 1815. 907. <
8346 1 -2 30 8 320. 1815. 907. <
8347 3 8 -30 -2 326. 454. 454. <
8347 2 -2 30 8 326. 454. 454. <
8347 1 2 30 -8 326. 454. 454. <
8348 3 -8 -30 -2 316. 907. 453. <
8348 2 -2 30 -8 316. 907. 453. <
8348 1 2 30 8 316. 907. 453. <
8349 3 8 -30 2 331. 2268. 452. o
8349 2 2 30 8 331. 2268. 452. o
8349 1 -2 30 -8 331. 2268. 452. o
8350 3 -8 -30 -4 2564. 2722. 907. o
8350 2 -4 30 -8 2564. 2722. 907. o
8350 1 4 30 8 2564. 2722. 907. o
8351 3 8 -30 4 2564. 2722. 453. o
8351 2 4 30 8 2564. 2722. 453. o
8351 1 -4 30 -8 2564. 2722. 453. o
8352 3 -8 -30 -6 207. -907. 453. <
8352 2 -6 30 -8 207. -907. 453. <
8352 1 6 30 8 207. -907. 453. <
8353 3 8 -30 6 209. 1815. 907. <
8353 2 6 30 8 209. 1815. 907. <
8353 1 -6 30 -8 209. 1815. 907. <
8354 2 5 31 -8 1717. 907. 454. <
8354 1 -5 31 8 1717. 907. 454. <
8355 2 -5 31 8 1724. 454. 454. <
8355 1 5 31 -8 1724. 454. 454. <
8356 2 3 31 -8 5653. 5898. 907. o
8356 1 -3 31 8 5653. 5898. 907. o
8357 2 1 31 -8 2060. 1815. 454. o
8357 1 -1 31 8 2060. 1815. 454. o
8358 2 -1 31 -8 2060. 1815. 907. <
8358 1 1 31 8 2060. 1815. 907. <
8359 2 -3 31 -8 5638. 5444. 454. o
8359 1 3 31 8 5638. 5444. 454. o
8360 2 3 31 8 5653. 4083. 458. o
8360 1 -3 31 -8 5653. 4083. 458. o
8361 2 -5 31 -8 1724. -454. 907. <
8361 1 5 31 8 1724. -454. 907. <
8362 2 5 31 8 1717. 907. 454. <
8362 1 -5 31 -8 1717. 907. 454. <
8363 3 -8 -32 6 230. -454. 907. <
8363 2 6 32 -8 230. -454. 907. <
8363 1 -6 32 8 230. -454. 907. <
8364 3 8 -32 -6 221. 907. 453. <
8364 2 -6 32 8 221. 907. 453. <
8364 1 6 32 -8 221. 907. 453. <
8365 3 -8 -32 4 1011. 2268. 452. o
8365 2 4 32 -8 1011. 2268. 452. o
8365 1 -4 32 8 1011. 2268. 452. o
8366 3 8 -32 -4 1024. 0. 454. <
8366 2 -4 32 8 1024. 0. 454. <
8366 1 4 32 -8 1024. 0. 454. <
8367 3 -8 -32 2 466. 454. 907. <
8367 2 2 32 -8 466. 454. 907. <
8367 1 -2 32 8 466. 454. 907. <
8368 3 8 -32 -2 450. 454. 907. <
8368 2 -2 32 8 450. 454. 907. <
8368 1 2 32 -8 450. 454. 907. <
8369 3 -8 -32 -2 462. 0. 907. <
8369 2 -2 32 -8 462. 0. 907. <
8369 1 2 32 8 462. 0. 907. <
8370 3 8 -32 2 454. 0. 454. <
8370 2 2 32 8 454. 0. 454. <
8370 1 -2 32 -8 454. 0. 454. <
8371 3 -8 -32 -4 1015. 2722. 451. o
8371 2 -4 32 -8 1015. 2722. 451. o
8371 1 4 32 8 1015. 2722. 451. o
8372 3 8 -32 4 1020. 454. 454. <
8372 2 4 32 8 1020. 454. 454. <
8372 1 -4 32 -8 1020. 454. 454. <
8373 3 -8 -32 -6 226. 454. 454. <
8373 2 -6 32 -8 226. 454. 454. <
8373 1 6 32 8 226. 454. 454. <
8374 3 8 -32 6 226. 0. 454. <
8374 2 6 32 8 226. 0. 454. <
8374 1 -6 32 -8 226. 0. 454. <
8375 2 5 33 -8 224. 907. 453. <
8375 1 -5 33 8 224. 907. 453. <
8376 2 -5 33 8 223. -454. 907. <
8376 1 5 33 -8 223. -454. 907. <
8377 2 3 33 -8 332. 454. 907. <
8377 1 -3 33 8 332. 454. 907. <
8378 2 1 33 -8 464. 907. 453. <
8378 1 -1 33 8 464. 907. 453. <
8379 2 -1 33 -8 459. 1815. 907. <
8379 1 1 33 8 459. 1815. 907. <
8380 2 1 33 8 464. -454. 454. <
8380 1 -1 33 -8 464. -454. 454. <
8381 2 -3 33 -8 335. 907. 907. <
8381 1 3 33 8 335. 907. 907. <
8382 2 3 33 8 332. -454. 454. <
8382 1 -3 33 -8 332. -454. 454. <
8383 2 -5 33 -8 223. 454. 907. <
8383 1 5 33 8 223. 454. 907. <
8384 2 5 33 8 224. 907. 453. <
8384 1 -5 33 -8 224. 907. 453. <
8385 3 -8 -34 4 822. 454. 454. <
8385 2 4 34 -8 822. 454. 454. <
8385 1 -4 34 8 822. 454. 454. <
8386 3 8 -34 -4 811. -907. 907. <
8386 2 -4 34 8 811. -907. 907. <
8386 1 4 34 -8 811. -907. 907. <
8387 3 -8 -34 2 460. -1361. 453. <
8387 2 2 34 -8 460. -1361. 453. <
8387 1 -2 34 8 460. -1361. 453. <
8388 3 8 -34 -2 452. -1815. 907. <
8388 2 -2 34 8 452. -1815. 907. <
8388 1 2 34 -8 452. -1815. 907. <
8389 3 8 -34 0 1279. -1815. 907. <
8389 2 0 34 8 1279. -1815. 907. <
8389 1 0 34 -8 1279. -1815. 907. <
8390 3 -8 -34 -2 453. 0. 907. <
8390 2 -2 34 -8 453. 0. 907. <
8390 1 2 34 8 453. 0. 907. <
8391 3 8 -34 2 460. -907. 907. <
8391 2 2 34 8 460. -907. 907. <
8391 1 -2 34 -8 460. -907. 907. <
8392 3 -8 -34 -4 812. -454. 454. <
8392 2 -4 34 -8 812. -454. 454. <
8392 1 4 34 8 812. -454. 454. <
8393 3 8 -34 4 821. -1815. 452. <
8393 2 4 34 8 821. -1815. 452. <
8393 1 -4 34 -8 821. -1815. 452. <
8394 2 5 35 -8 49. -454. 454. <
8394 1 -5 35 8 49. -454. 454. <
8395 2 -5 35 8 50. 0. 907. <
8395 1 5 35 -8 50. 0. 907. <
8396 2 3 35 -8 409. 907. 453. <
8396 1 -3 35 8 409. 907. 453. <
8397 2 -3 35 8 409. 907. 453. <
8397 1 3 35 -8 409. 907. 453. <
8398 2 1 35 -8 65. 1361. 907. <
8398 1 -1 35 8 65. 1361. 907. <
8399 2 -1 35 8 65. 1361. 907. <
8399 1 1 35 -8 65. 1361. 907. <
8400 2 -1 35 -8 65. -454. 907. <
8400 1 1 35 8 65. -454. 907. <
8401 2 1 35 8 65. 0. 907. <
8401 1 -1 35 -8 65. 0. 907. <
8402 2 -3 35 -8 409. -454. 907. <
8402 1 3 35 8 409. -454. 907. <
8403 2 3 35 8 409. 0. 454. <
8403 1 -3 35 -8 409. 0. 454. <
8404 2 -5 35 -8 50. 1815. 907. <
8404 1 5 35 8 50. 1815. 907. <
8405 2 5 35 8 49. -907. 453. <
8405 1 -5 35 -8 49. -907. 453. <
8406 3 -8 -36 4 60098. 69863. 1227. o
8406 2 4 36 -8 60098. 69863. 1227. o
8406 1 -4 36 8 60098. 69863. 1227. o
8407 3 -8 -36 2 43909. 51263. 1289. o
8407 2 2 36 -8 43909. 51263. 1289. o
8407 1 -2 36 8 43909. 51263. 1289. o
8408 3 8 -36 -2 44013. 46273. 877. o
8408 2 -2 36 8 44013. 46273. 877. o
8408 1 2 36 -8 44013. 46273. 877. o
8409 3 -8 -36 0 140092. 130199. 1999. o
8409 2 0 36 -8 140092. 130199. 1999. o
8409 1 0 36 8 140092. 130199. 1999. o
8410 3 8 -36 0 140026. 148799. 1616. o
8410 2 0 36 8 140026. 148799. 1616. o
8410 1 0 36 -8 140026. 148799. 1616. o
8411 3 -8 -36 -2 43975. 46273. 876. o
8411 2 -2 36 -8 43975. 46273. 876. o
8411 1 2 36 8 43975. 46273. 876. o
8412 3 8 -36 2 43948. 58975. 1192. o
8412 2 2 36 8 43948. 58975. 1192. o
8412 1 -2 36 -8 43948. 58975. 1192. o
8413 3 -8 -36 -4 59973. 55346. 1412. o
8413 2 -4 36 -8 59973. 55346. 1412. o
8413 1 4 36 8 59973. 55346. 1412. o
8414 2 5 37 -8 146. 454. 454. <
8414 1 -5 37 8 146. 454. 454. <
8415 2 -5 37 8 147. 454. 907. <
8415 1 5 37 -8 147. 454. 907. <
8416 2 3 37 -8 187. 907. 453. <
8416 1 -3 37 8 187. 907. 453. <
8417 2 -3 37 8 187. 0. 454. <
8417 1 3 37 -8 187. 0. 454. <
8418 2 1 37 -8 436. 1815. 907. <
8418 1 -1 37 8 436. 1815. 907. <
8419 2 -1 37 8 436. 1361. 907. <
8419 1 1 37 -8 436. 1361. 907. <
8420 2 -1 37 -8 436. 454. 454. <
8420 1 1 37 8 436. 454. 454. <
8421 2 1 37 8 436. -907. 907. <
8421 1 -1 37 -8 436. -907. 907. <
8422 2 -3 37 -8 187. -454. 454. <
8422 1 3 37 8 187. -454. 454. <
8423 2 3 37 8 187. 0. 454. <
8423 1 -3 37 -8 187. 0. 454. <
8424 2 -5 37 -8 147. 907. 907. <
8424 1 5 37 8 147. 907. 907. <
8425 2 5 37 8 146. 907. 907. <
8425 1 -5 37 -8 146. 907. 907. <
8426 3 -8 -38 4 16157. 14063. 1367. o
8426 2 4 38 -8 16157. 14063. 1367. o
8426 1 -4 38 8 16157. 14063. 1367. o
8427 3 -8 -38 2 8810. 6351. 912. o
8427 2 2 38 -8 8810. 6351. 912. o
8427 1 -2 38 8 8810. 6351. 912. o
8428 3 8 -38 -2 8854. 8166. 909. o
8428 2 -2 38 8 8854. 8166. 909. o
8428 1 2 38 -8 8854. 8166. 909. o
8429 3 -8 -38 0 32613. 26766. 1393. o
8429 2 0 38 -8 32613. 26766. 1393. o
8429 1 0 38 8 32613. 26766. 1393. o
8430 3 8 -38 0 32583. 23590. 975. o
8430 2 0 38 8 32583. 23590. 975. o
8430 1 0 38 -8 32583. 23590. 975. o
8431 3 -8 -38 -2 8844. 6805. 463. o
8431 2 -2 38 -8 8844. 6805. 463. o
8431 1 2 38 8 8844. 6805. 463. o
8432 3 8 -38 2 8820. 9980. 904. o
8432 2 2 38 8 8820. 9980. 904. o
8432 1 -2 38 -8 8820. 9980. 904. o
8433 3 -8 -38 -4 16118. 11341. 925. o
8433 2 -4 38 -8 16118. 11341. 925. o
8433 1 4 38 8 16118. 11341. 925. o
8434 2 5 39 -8 235. -454. 454. <
8434 1 -5 39 8 235. -454. 454. <
8435 2 -5 39 8 236. 907. 453. <
8435 1 5 39 -8 236. 907. 453. <
8436 2 3 39 -8 99. 454. 454. <
8436 1 -3 39 8 99. 454. 454. <
8437 2 -3 39 8 100. -907. 907. <
8437 1 3 39 -8 100. -907. 907. <
8438 2 1 39 -8 361. -454. 454. <
8438 1 -1 39 8 361. -454. 454. <
8439 2 -1 39 8 360. 1361. 907. <
8439 1 1 39 -8 360. 1361. 907. <
8440 2 -1 39 -8 360. -907. 907. <
8440 1 1 39 8 360. -907. 907. <
8441 2 1 39 8 361. 454. 454. <
8441 1 -1 39 -8 361. 454. 454. <
8442 2 -3 39 -8 100. 907. 453. <
8442 1 3 39 8 100. 907. 453. <
8443 2 3 39 8 99. 1361. 453. o
8443 1 -3 39 -8 99. 1361. 453. o
8444 2 -5 39 -8 236. 907. 907. <
8444 1 5 39 8 236. 907. 907. <
8445 2 5 39 8 235. 2268. 452. o
8445 1 -5 39 -8 235. 2268. 452. o
8446 3 -8 -40 4 1905. 907. 454. <
8446 2 4 40 -8 1905. 907. 454. <
8446 1 -4 40 8 1905. 907. 454. <
8447 3 8 -40 -4 1900. 2722. 452. o
8447 2 -4 40 8 1900. 2722. 452. o
8447 1 4 40 -8 1900. 2722. 452. o
8448 3 -8 -40 2 2156. 1815. 454. o
8448 2 2 40 -8 2156. 1815. 454. o
8448 1 -2 40 8 2156. 1815. 454. o
8449 3 8 -40 -2 2168. 907. 908. <
8449 2 -2 40 8 2168. 907. 908. <
8449 1 2 40 -8 2168. 907. 908. <
8450 3 -8 -40 0 5568. 5898. 907. o
8450 2 0 40 -8 5568. 5898. 907. o
8450 1 0 40 8 5568. 5898. 907. o
8451 3 8 -40 0 5567. 3629. 458. o
8451 2 0 40 8 5567. 3629. 458. o
8451 1 0 40 -8 5567. 3629. 458. o
8452 3 -8 -40 -2 2168. -454. 908. <
8452 2 -2 40 -8 2168. -454. 908. <
8452 1 2 40 8 2168. -454. 908. <
8453 3 8 -40 2 2156. 1815. 908. <
8453 2 2 40 8 2156. 1815. 908. <
8453 1 -2 40 -8 2156. 1815. 908. <
8454 3 -8 -40 -4 1902. 1361. 454. o
8454 2 -4 40 -8 1902. 1361. 454. o
8454 1 4 40 8 1902. 1361. 454. o
8455 3 8 -40 4 1904. 1815. 907. <
8455 2 4 40 8 1904. 1815. 907. <
8455 1 -4 40 -8 1904. 1815. 907. <
8456 2 5 41 -8 256. 0. 907. <
8456 1 -5 41 8 256. 0. 907. <
8457 2 -5 41 8 252. 907. 453. <
8457 1 5 41 -8 252. 907. 453. <
8458 2 3 41 -8 307. -454. 454. <
8458 1 -3 41 8 307. -454. 454. <
8459 2 -3 41 8 309. 1361. 907. <
8459 1 3 41 -8 309. 1361. 907. <
8460 2 1 41 -8 550. 454. 454. <
8460 1 -1 41 8 550. 454. 454. <
8461 2 -1 41 8 547. -454. 907. <
8461 1 1 41 -8 547. -454. 907. <
8462 2 -1 41 -8 547. 1815. 907. <
8462 1 1 41 8 547. 1815. 907. <
8463 2 1 41 8 550. 907. 453. <
8463 1 -1 41 -8 550. 907. 453. <
8464 2 -3 41 -8 309. 907. 453. <
8464 1 3 41 8 309. 907. 453. <
8465 2 3 41 8 307. 454. 454. <
8465 1 -3 41 -8 307. 454. 454. <
8466 2 -5 41 -8 252. -454. 907. <
8466 1 5 41 8 252. -454. 907. <
8467 2 5 41 8 256. 0. 454. <
8467 1 -5 41 -8 256. 0. 454. <
8468 3 -8 -42 4 1048. 907. 454. <
8468 2 4 42 -8 1048. 907. 454. <
8468 1 -4 42 8 1048. 907. 454. <
8469 3 8 -42 -4 1048. 1815. 453. o
8469 2 -4 42 8 1048. 1815. 453. o
8469 1 4 42 -8 1048. 1815. 453. o
8470 3 -8 -42 2 1638. 2268. 453. o
8470 2 2 42 -8 1638. 2268. 453. o
8470 1 -2 42 8 1638. 2268. 453. o
8471 3 8 -42 -2 1648. 907. 454. <
8471 2 -2 42 8 1648. 907. 454. <
8471 1 2 42 -8 1648. 907. 454. <
8472 3 -8 -42 0 4230. 3629. 908. o
8472 2 0 42 -8 4230. 3629. 908. o
8472 1 0 42 8 4230. 3629. 908. o
8473 3 8 -42 0 4226. 5444. 450. o
8473 2 0 42 8 4226. 5444. 450. o
8473 1 0 42 -8 4226. 5444. 450. o
8474 3 -8 -42 -2 1642. 2722. 907. o
8474 2 -2 42 -8 1642. 2722. 907. o
8474 1 2 42 8 1642. 2722. 907. o
8475 3 8 -42 2 1644. 2722. 452. o
8475 2 2 42 8 1644. 2722. 452. o
8475 1 -2 42 -8 1644. 2722. 452. o
8476 3 -8 -42 -4 1051. 1361. 453. o
8476 2 -4 42 -8 1051. 1361. 453. o
8476 1 4 42 8 1051. 1361. 453. o
8477 3 8 -42 4 1045. 2268. 452. o
8477 2 4 42 8 1045. 2268. 452. o
8477 1 -4 42 -8 1045. 2268. 452. o
8478 2 5 43 -8 1748. 454. 454. <
8478 1 -5 43 8 1748. 454. 454. <
8479 2 -5 43 8 1753. 1815. 454. o
8479 1 5 43 -8 1753. 1815. 454. o
8480 2 3 43 -8 394. 1361. 453. o
8480 1 -3 43 8 394. 1361. 453. o
8481 2 -3 43 8 394. -454. 454. <
8481 1 3 43 -8 394. -454. 454. <
8482 2 1 43 -8 2818. 2722. 454. o
8482 1 -1 43 8 2818. 2722. 454. o
8483 2 -1 43 8 2820. 2722. 907. o
8483 1 1 43 -8 2820. 2722. 907. o
8484 2 -1 43 -8 2820. 2722. 454. o
8484 1 1 43 8 2820. 2722. 454. o
8485 2 1 43 8 2818. 2268. 454. o
8485 1 -1 43 -8 2818. 2268. 454. o
8486 2 -3 43 -8 394. -907. 453. <
8486 1 3 43 8 394. -907. 453. <
8487 2 3 43 8 394. -907. 907. <
8487 1 -3 43 -8 394. -907. 907. <
8488 2 -5 43 -8 1753. 1815. 454. o
8488 1 5 43 8 1753. 1815. 454. o
8489 2 5 43 8 1748. 1361. 454. o
8489 1 -5 43 -8 1748. 1361. 454. o
8490 3 -8 -44 4 617. -907. 453. <
8490 2 4 44 -8 617. -907. 453. <
8490 1 -4 44 8 617. -907. 453. <
8491 3 8 -44 -4 622. -454. 907. <
8491 2 -4 44 8 622. -454. 907. <
8491 1 4 44 -8 622. -454. 907. <
8492 3 -8 -44 2 1321. 1361. 454. o
8492 2 2 44 -8 1321. 1361. 454. o
8492 1 -2 44 8 1321. 1361. 454. o
8493 3 8 -44 -2 1315. 1815. 907. <
8493 2 -2 44 8 1315. 1815. 907. <
8493 1 2 44 -8 1315. 1815. 907. <
8494 3 -8 -44 0 1985. 0. 908. <
8494 2 0 44 -8 1985. 0. 908. <
8494 1 0 44 8 1985. 0. 908. <
8495 3 8 -44 0 1989. 2722. 453. o
8495 2 0 44 8 1989. 2722. 453. o
8495 1 0 44 -8 1989. 2722. 453. o
8496 3 -8 -44 -2 1319. 1815. 453. o
8496 2 -2 44 -8 1319. 1815. 453. o
8496 1 2 44 8 1319. 1815. 453. o
8497 3 8 -44 2 1316. 2722. 452. o
8497 2 2 44 8 1316. 2722. 452. o
8497 1 -2 44 -8 1316. 2722. 452. o
8498 3 -8 -44 -4 619. 454. 454. <
8498 2 -4 44 -8 619. 454. 454. <
8498 1 4 44 8 619. 454. 454. <
8499 3 8 -44 4 620. 454. 454. <
8499 2 4 44 8 620. 454. 454. <
8499 1 -4 44 -8 620. 454. 454. <
8500 2 3 45 -8 35. 907. 453. <
8500 1 -3 45 8 35. 907. 453. <
8501 2 -3 45 8 37. 1361. 907. <
8501 1 3 45 -8 37. 1361. 907. <
8502 2 1 45 -8 92. 454. 454. <
8502 1 -1 45 8 92. 454. 454. <
8503 2 -1 45 8 90. 1361. 907. <
8503 1 1 45 -8 90. 1361. 907. <
8504 2 -1 45 -8 90. 907. 907. <
8504 1 1 45 8 90. 907. 907. <
8505 2 1 45 8 92. 907. 453. <
8505 1 -1 45 -8 92. 907. 453. <
8506 2 -3 45 -8 37. 1361. 907. <
8506 1 3 45 8 37. 1361. 907. <
8507 2 3 45 8 35. 907. 453. <
8507 1 -3 45 -8 35. 907. 453. <
8508 3 -8 -46 4 135. 907. 453. <
8508 2 4 46 -8 135. 907. 453. <
8508 1 -4 46 8 135. 907. 453. <
8509 3 8 -46 -4 139. -454. 907. <
8509 2 -4 46 8 139. -454. 907. <
8509 1 4 46 -8 139. -454. 907. <
8510 3 -8 -46 2 183. 907. 453. <
8510 2 2 46 -8 183. 907. 453. <
8510 1 -2 46 8 183. 907. 453. <
8511 3 8 -46 -2 187. 454. 907. <
8511 2 -2 46 8 187. 454. 907. <
8511 1 2 46 -8 187. 454. 907. <
8512 3 -8 -46 0 79. -1361. 907. <
8512 2 0 46 -8 79. -1361. 907. <
8512 1 0 46 8 79. -1361. 907. <
8513 3 8 -46 0 81. -907. 453. <
8513 2 0 46 8 81. -907. 453. <
8513 1 0 46 -8 81. -907. 453. <
8514 3 -8 -46 -2 188. -1361. 907. <
8514 2 -2 46 -8 188. -1361. 907. <
8514 1 2 46 8 188. -1361. 907. <
8515 3 8 -46 2 181. 0. 454. <
8515 2 2 46 8 181. 0. 454. <
8515 1 -2 46 -8 181. 0. 454. <
8516 3 -8 -46 -4 137. 454. 454. <
8516 2 -4 46 -8 137. 454. 454. <
8516 1 4 46 8 137. 454. 454. <
8517 3 8 -46 4 137. 454. 454. <
8517 2 4 46 8 137. 454. 454. <
8517 1 -4 46 -8 137. 454. 454. <
8518 2 3 47 -8 62. 0. 454. <
8518 1 -3 47 8 62. 0. 454. <
8519 2 -3 47 8 61. 454. 907. <
8519 1 3 47 -8 61. 454. 907. <
8520 2 1 47 -8 17. -454. 454. <
8520 1 -1 47 8 17. -454. 454. <
8521 2 -1 47 8 18. 907. 453. <
8521 1 1 47 -8 18. 907. 453. <
8522 2 -1 47 -8 18. 0. 907. <
8522 1 1 47 8 18. 0. 907. <
8523 2 1 47 8 17. 454. 454. <
8523 1 -1 47 -8 17. 454. 454. <
8524 2 -3 47 -8 61. 454. 907. <
8524 1 3 47 8 61. 454. 907. <
8525 2 3 47 8 62. 907. 453. <
8525 1 -3 47 -8 62. 907. 453. <
8526 3 -8 -48 4 17189. 15424. 916. o
8526 2 4 48 -8 17189. 15424. 916. o
8526 1 -4 48 8 17189. 15424. 916. o
8527 3 8 -48 -4 17177. 13156. 1372. o
8527 2 -4 48 8 17177. 13156. 1372. o
8527 1 4 48 -8 17177. 13156. 1372. o
8528 3 -8 -48 2 19400. 20868. 898. o
8528 2 2 48 -8 19400. 20868. 898. o
8528 1 -2 48 8 19400. 20868. 898. o
8529 3 8 -48 -2 19461. 17239. 1369. o
8529 2 -2 48 8 19461. 17239. 1369. o
8529 1 2 48 -8 19461. 17239. 1369. o
8530 3 -8 -48 0 35888. 33117. 1379. o
8530 2 0 48 -8 35888. 33117. 1379. o
8530 1 0 48 8 35888. 33117. 1379. o
8531 3 8 -48 0 35881. 40829. 1322. o
8531 2 0 48 8 35881. 40829. 1322. o
8531 1 0 48 -8 35881. 40829. 1322. o
8532 3 -8 -48 -2 19444. 12249. 1381. o
8532 2 -2 48 -8 19444. 12249. 1381. o
8532 1 2 48 8 19444. 12249. 1381. o
8533 3 8 -48 2 19418. 17239. 919. o
8533 2 2 48 8 19418. 17239. 919. o
8533 1 -2 48 -8 19418. 17239. 919. o
8534 3 -8 -48 -4 17184. 12249. 927. o
8534 2 -4 48 -8 17184. 12249. 927. o
8534 1 4 48 8 17184. 12249. 927. o
8535 3 8 -48 4 17182. 14517. 919. o
8535 2 4 48 8 17182. 14517. 919. o
8535 1 -4 48 -8 17182. 14517. 919. o
8536 2 3 49 -8 46. -454. 454. <
8536 1 -3 49 8 46. -454. 454. <
8537 2 -3 49 8 46. 1361. 453. o
8537 1 3 49 -8 46. 1361. 453. o
8538 2 1 49 -8 135. 907. 453. <
8538 1 -1 49 8 135. 907. 453. <
8539 2 -1 49 8 134. 907. 453. <
8539 1 1 49 -8 134. 907. 453. <
8540 2 -1 49 -8 134. 454. 907. <
8540 1 1 49 8 134. 454. 907. <
8541 2 1 49 8 135. 907. 453. <
8541 1 -1 49 -8 135. 907. 453. <
8542 2 -3 49 -8 46. -907. 453. <
8542 1 3 49 8 46. -907. 453. <
8543 2 3 49 8 46. 454. 907. <
8543 1 -3 49 -8 46. 454. 907. <
8544 3 -8 -50 4 5626. 4537. 457. o
8544 2 4 50 -8 5626. 4537. 457. o
8544 1 -4 50 8 5626. 4537. 457. o
8545 3 8 -50 -4 5607. 4083. 909. o
8545 2 -4 50 8 5607. 4083. 909. o
8545 1 4 50 -8 5607. 4083. 909. o
8546 3 -8 -50 2 4170. 4537. 907. o
8546 2 2 50 -8 4170. 4537. 907. o
8546 1 -2 50 8 4170. 4537. 907. o
8547 3 8 -50 -2 4190. -454. 1362. <
8547 2 -2 50 8 4190. -454. 1362. <
8547 1 2 50 -8 4190. -454. 1362. <
8548 3 -8 -50 0 8884. 4083. 915. o
8548 2 0 50 -8 8884. 4083. 915. o
8548 1 0 50 8 8884. 4083. 915. o
8549 3 8 -50 0 8885. 9073. 907. o
8549 2 0 50 8 8885. 9073. 907. o
8549 1 0 50 -8 8885. 9073. 907. o
8550 3 -8 -50 -2 4178. 1815. 909. <
8550 2 -2 50 -8 4178. 1815. 909. <
8550 1 2 50 8 4178. 1815. 909. <
8551 3 8 -50 2 4182. 6351. 446. o
8551 2 2 50 8 4182. 6351. 446. o
8551 1 -2 50 -8 4182. 6351. 446. o
8552 3 -8 -50 -4 5609. 4537. 909. o
8552 2 -4 50 -8 5609. 4537. 909. o
8552 1 4 50 8 5609. 4537. 909. o
8553 3 8 -50 4 5624. 3629. 910. o
8553 2 4 50 8 5624. 3629. 910. o
8553 1 -4 50 -8 5624. 3629. 910. o
8554 2 3 51 -8 26. 907. 453. <
8554 1 -3 51 8 26. 907. 453. <
8555 2 -3 51 8 26. -1361. 907. <
8555 1 3 51 -8 26. -1361. 907. <
8556 2 1 51 -8 24. -907. 453. <
8556 1 -1 51 8 24. -907. 453. <
8557 2 -1 51 8 24. 907. 453. <
8557 1 1 51 -8 24. 907. 453. <
8558 2 -1 51 -8 24. -1815. 907. <
8558 1 1 51 8 24. -1815. 907. <
8559 2 1 51 8 24. -2268. 452. <
8559 1 -1 51 -8 24. -2268. 452. <
8560 2 -3 51 -8 26. 0. 454. <
8560 1 3 51 8 26. 0. 454. <
8561 2 3 51 8 26. -907. 453. <
8561 1 -3 51 -8 26. -907. 453. <
8562 3 -8 -52 2 358. -454. 907. <
8562 2 2 52 -8 358. -454. 907. <
8562 1 -2 52 8 358. -454. 907. <
8563 3 8 -52 -2 357. -454. 454. <
8563 2 -2 52 8 357. -454. 454. <
8563 1 2 52 -8 357. -454. 454. <
8564 3 -8 -52 0 330. 1361. 453. o
8564 2 0 52 -8 330. 1361. 453. o
8564 1 0 52 8 330. 1361. 453. o
8565 3 8 -52 0 331. -454. 454. <
8565 2 0 52 8 331. -454. 454. <
8565 1 0 52 -8 331. -454. 454. <
8566 3 -8 -52 -2 356. 0. 454. <
8566 2 -2 52 -8 356. 0. 454. <
8566 1 2 52 8 356. 0. 454. <
8567 3 8 -52 2 358. 1361. 453. o
8567 2 2 52 8 358. 1361. 453. o
8567 1 -2 52 -8 358. 1361. 453. o
8568 2 3 53 -8 42. 454. 454. <
8568 1 -3 53 8 42. 454. 454. <
8569 2 -3 53 8 44. -907. 907. <
8569 1 3 53 -8 44. -907. 907. <
8570 2 1 53 -8 2. -907. 453. <
8570 1 -1 53 8 2. -907. 453. <
8571 2 -1 53 8 2. 0. 454. <
8571 1 1 53 -8 2. 0. 454. <
8572 2 -1 53 -8 2. 0. 454. <
8572 1 1 53 8 2. 0. 454. <
8573 2 1 53 8 2. 454. 454. <
8573 1 -1 53 -8 2. 454. 454. <
8574 2 -3 53 -8 44. 907. 453. <
8574 1 3 53 8 44. 907. 453. <
8575 2 3 53 8 42. 907. 453. <
8575 1 -3 53 -8 42. 907. 453. <
8576 3 -8 -54 2 196. 907. 453. <
8576 2 2 54 -8 196. 907. 453. <
8576 1 -2 54 8 196. 907. 453. <
8577 3 8 -54 -2 194. 907. 453. <
8577 2 -2 54 8 194. 907. 453. <
8577 1 2 54 -8 194. 907. 453. <
8578 3 -8 -54 0 225. 0. 454. <
8578 2 0 54 -8 225. 0. 454. <
8578 1 0 54 8 225. 0. 454. <
8579 3 8 -54 0 223. 454. 454. <
8579 2 0 54 8 223. 454. 454. <
8579 1 0 54 -8 223. 454. 454. <
8580 3 -8 -54 -2 193. 454. 907. <
8580 2 -2 54 -8 193. 454. 907. <
8580 1 2 54 8 193. 454. 907. <
8581 3 8 -54 2 197. 1815. 452. o
8581 2 2 54 8 197. 1815. 452. o
8581 1 -2 54 -8 197. 1815. 452. o
8582 2 3 55 -8 872. 454. 454. <
8582 1 -3 55 8 872. 454. 454. <
8583 2 -3 55 8 870. -2268. 906. <
8583 1 3 55 -8 870. -2268. 906. <
8584 2 1 55 -8 522. 907. 453. <
8584 1 -1 55 8 522. 907. 453. <
8585 2 -1 55 8 521. 907. 907. <
8585 1 1 55 -8 521. 907. 907. <
8586 2 -1 55 -8 521. 454. 454. <
8586 1 1 55 8 521. 454. 454. <
8587 2 1 55 8 522. 907. 907. <
8587 1 -1 55 -8 522. 907. 907. <
8588 2 -3 55 -8 870. 0. 907. <
8588 1 3 55 8 870. 0. 907. <
8589 2 3 55 8 872. 907. 907. <
8589 1 -3 55 -8 872. 907. 907. <
8590 3 -8 -56 2 52. 0. 454. <
8590 2 2 56 -8 52. 0. 454. <
8590 1 -2 56 8 52. 0. 454. <
8591 3 8 -56 -2 51. 1815. 452. o
8591 2 -2 56 8 51. 1815. 452. o
8591 1 2 56 -8 51. 1815. 452. o
8592 3 -8 -56 0 48. 1361. 453. o
8592 2 0 56 -8 48. 1361. 453. o
8592 1 0 56 8 48. 1361. 453. o
8593 3 8 -56 0 50. 0. 454. <
8593 2 0 56 8 50. 0. 454. <
8593 1 0 56 -8 50. 0. 454. <
8594 3 -8 -56 -2 52. 907. 907. <
8594 2 -2 56 -8 52. 907. 907. <
8594 1 2 56 8 52. 907. 907. <
8595 3 8 -56 2 51. 454. 454. <
8595 2 2 56 8 51. 454. 454. <
8595 1 -2 56 -8 51. 454. 454. <
8596 2 1 57 -8 151. 907. 453. <
8596 1 -1 57 8 151. 907. 453. <
8597 2 -1 57 8 150. 907. 907. <
8597 1 1 57 -8 150. 907. 907. <
8598 2 -1 57 -8 150. 0. 454. <
8598 1 1 57 8 150. 0. 454. <
8599 2 1 57 8 151. -907. 453. <
8599 1 -1 57 -8 151. -907. 453. <
8600 3 -8 -58 2 369. 1361. 453. o
8600 2 2 58 -8 369. 1361. 453. o
8600 1 -2 58 8 369. 1361. 453. o
8601 3 8 -58 -2 367. 907. 907. <
8601 2 -2 58 8 367. 907. 907. <
8601 1 2 58 -8 367. 907. 907. <
8602 3 -8 -58 0 505. 907. 453. <
8602 2 0 58 -8 505. 907. 453. <
8602 1 0 58 8 505. 907. 453. <
8603 3 8 -58 0 505. -454. 454. <
8603 2 0 58 8 505. -454. 454. <
8603 1 0 58 -8 505. -454. 454. <
8604 3 -8 -58 -2 368. 907. 453. <
8604 2 -2 58 -8 368. 907. 453. <
8604 1 2 58 8 368. 907. 453. <
8605 3 8 -58 2 368. 907. 453. <
8605 2 2 58 8 368. 907. 453. <
8605 1 -2 58 -8 368. 907. 453. <
8606 2 1 59 -8 37. 907. 453. <
8606 1 -1 59 8 37. 907. 453. <
8607 2 -1 59 8 37. 907. 453. <
8607 1 1 59 -8 37. 907. 453. <
8608 2 -1 59 -8 37. 454. 454. <
8608 1 1 59 8 37. 454. 454. <
8609 2 1 59 8 37. 1361. 453. o
8609 1 -1 59 -8 37. 1361. 453. o
8610 3 -8 -60 0 14047. 11341. 917. o
8610 2 0 60 -8 14047. 11341. 917. o
8610 1 0 60 8 14047. 11341. 917. o
8611 3 8 -60 0 14043. 10888. 918. o
8611 2 0 60 8 14043. 10888. 918. o
8611 1 0 60 -8 14043. 10888. 918. o
8612 3 -9 -1 5 4748. 4083. 455. o
8612 2 5 1 -9 4748. 4083. 455. o
8612 1 -5 1 9 4748. 4083. 455. o
8613 3 -9 -1 1 43370. 40829. 938. o
8613 2 1 1 -9 43370. 40829. 938. o
8613 1 -1 1 9 43370. 40829. 938. o
8614 3 9 -1 3 76688. 60336. 1558. o
8614 2 3 1 9 76688. 60336. 1558. o
8614 1 -3 1 -9 76688. 60336. 1558. o
8615 3 9 -1 5 4832. 1815. 459. o
8615 2 5 1 9 4832. 1815. 459. o
8615 1 -5 1 -9 4832. 1815. 459. o
8616 2 4 2 -9 141. 907. 453. <
8616 1 -4 2 9 141. 907. 453. <
8617 2 -4 2 9 139. -454. 907. <
8617 1 4 2 -9 139. -454. 907. <
8618 2 2 2 -9 27. 907. 453. <
8618 1 -2 2 9 27. 907. 453. <
8619 2 -2 2 9 28. 0. 454. <
8619 1 2 2 -9 28. 0. 454. <
8620 2 0 2 -9 16. 907. 907. <
8620 1 0 2 9 16. 907. 907. <
8621 2 0 2 9 16. 0. 907. <
8621 1 0 2 -9 16. 0. 907. <
8622 2 2 2 9 27. 454. 907. <
8622 1 -2 2 -9 27. 454. 907. <
8623 2 -4 2 -9 139. -907. 907. <
8623 1 4 2 9 139. -907. 907. <
8624 2 4 2 9 141. 907. 453. <
8624 1 -4 2 -9 141. 907. 453. <
8625 3 -9 -3 5 792. 907. 454. <
8625 2 5 3 -9 792. 907. 454. <
8625 1 -5 3 9 792. 907. 454. <
8626 3 9 -3 -5 829. -454. 907. <
8626 2 -5 3 9 829. -454. 907. <
8626 1 5 3 -9 829. -454. 907. <
8627 3 -9 -3 3 3647. 3176. 908. o
8627 2 3 3 -9 3647. 3176. 908. o
8627 1 -3 3 9 3647. 3176. 908. o
8628 3 -9 -3 1 2858. 2722. 907. o
8628 2 1 3 -9 2858. 2722. 907. o
8628 1 -1 3 9 2858. 2722. 907. o
8629 3 9 -3 3 3644. 5898. 904. o
8629 2 3 3 9 3644. 5898. 904. o
8629 1 -3 3 -9 3644. 5898. 904. o
8630 3 -9 -3 -5 823. 0. 907. <
8630 2 -5 3 -9 823. 0. 907. <
8630 1 5 3 9 823. 0. 907. <
8631 3 9 -3 5 798. 907. 454. <
8631 2 5 3 9 798. 907. 454. <
8631 1 -5 3 -9 798. 907. 454. <
8632 2 4 4 -9 49. -907. 453. <
8632 1 -4 4 9 49. -907. 453. <
8633 2 -4 4 9 51. 454. 907. <
8633 1 4 4 -9 51. 454. 907. <
8634 2 2 4 -9 96. 1361. 907. <
8634 1 -2 4 9 96. 1361. 907. <
8635 2 0 4 9 173. 454. 454. <
8635 1 0 4 -9 173. 454. 454. <
8636 2 -2 4 -9 98. 0. 454. <
8636 1 2 4 9 98. 0. 454. <
8637 2 2 4 9 96. 907. 907. <
8637 1 -2 4 -9 96. 907. 907. <
8638 2 -4 4 -9 51. 1815. 907. <
8638 1 4 4 9 51. 1815. 907. <
8639 2 4 4 9 49. 454. 454. <
8639 1 -4 4 -9 49. 454. 454. <
8640 3 -9 -5 5 76. 907. 453. <
8640 2 5 5 -9 76. 907. 453. <
8640 1 -5 5 9 76. 907. 453. <
8641 3 9 -5 -5 85. 907. 907. <
8641 2 -5 5 9 85. 907. 907. <
8641 1 5 5 -9 85. 907. 907. <
8642 3 -9 -5 3 416. 907. 907. <
8642 2 3 5 -9 416. 907. 907. <
8642 1 -3 5 9 416. 907. 907. <
8643 3 -9 -5 1 54. 2722. 906. o
8643 2 1 5 -9 54. 2722. 906. o
8643 1 -1 5 9 54. 2722. 906. o
8644 3 9 -5 1 56. 907. 907. <
8644 2 1 5 9 56. 907. 907. <
8644 1 -1 5 -9 56. 907. 907. <
8645 3 -9 -5 -3 409. 454. 454. <
8645 2 -3 5 -9 409. 454. 454. <
8645 1 3 5 9 409. 454. 454. <
8646 3 9 -5 3 411. 2722. 906. o
8646 2 3 5 9 411. 2722. 906. o
8646 1 -3 5 -9 411. 2722. 906. o
8647 3 -9 -5 -5 79. 907. 453. <
8647 2 -5 5 -9 79. 907. 453. <
8647 1 5 5 9 79. 907. 453. <
8648 3 9 -5 5 82. -454. 454. <
8648 2 5 5 9 82. -454. 454. <
8648 1 -5 5 -9 82. -454. 454. <
8649 2 4 6 -9 200. 907. 453. <
8649 1 -4 6 9 200. 907. 453. <
8650 2 -4 6 9 199. 454. 454. <
8650 1 4 6 -9 199. 454. 454. <
8651 2 2 6 -9 2128. 1815. 907. <
8651 1 -2 6 9 2128. 1815. 907. <
8652 2 0 6 9 8. 907. 453. <
8652 1 0 6 -9 8. 907. 453. <
8653 2 -2 6 -9 2129. 2268. 907. o
8653 1 2 6 9 2129. 2268. 907. o
8654 2 2 6 9 2128. 1815. 907. <
8654 1 -2 6 -9 2128. 1815. 907. <
8655 2 -4 6 -9 199. 0. 907. <
8655 1 4 6 9 199. 0. 907. <
8656 2 4 6 9 200. 1361. 453. o
8656 1 -4 6 -9 200. 1361. 453. o
8657 3 -9 -7 5 130. -454. 454. <
8657 2 5 7 -9 130. -454. 454. <
8657 1 -5 7 9 130. -454. 454. <
8658 3 9 -7 -5 141. 907. 907. <
8658 2 -5 7 9 141. 907. 907. <
8658 1 5 7 -9 141. 907. 907. <
8659 3 -9 -7 1 1605. 907. 908. <
8659 2 1 7 -9 1605. 907. 908. <
8659 1 -1 7 9 1605. 907. 908. <
8660 3 -9 -7 -1 1623. 2268. 907. o
8660 2 -1 7 -9 1623. 2268. 907. o
8660 1 1 7 9 1623. 2268. 907. o
8661 3 9 -7 1 1607. 907. 908. <
8661 2 1 7 9 1607. 907. 908. <
8661 1 -1 7 -9 1607. 907. 908. <
8662 3 9 -7 3 1446. 907. 907. <
8662 2 3 7 9 1446. 907. 907. <
8662 1 -3 7 -9 1446. 907. 907. <
8663 3 -9 -7 -5 136. 907. 453. <
8663 2 -5 7 -9 136. 907. 453. <
8663 1 5 7 9 136. 907. 453. <
8664 3 9 -7 5 135. -1361. 907. <
8664 2 5 7 9 135. -1361. 907. <
8664 1 -5 7 -9 135. -1361. 907. <
8665 2 4 8 -9 135. 1361. 453. o
8665 1 -4 8 9 135. 1361. 453. o
8666 2 -4 8 9 137. 0. 454. <
8666 1 4 8 -9 137. 0. 454. <
8667 2 2 8 -9 1475. 907. 454. <
8667 1 -2 8 9 1475. 907. 454. <
8668 2 -2 8 9 1470. 1361. 907. <
8668 1 2 8 -9 1470. 1361. 907. <
8669 2 0 8 -9 156. 0. 907. <
8669 1 0 8 9 156. 0. 907. <
8670 2 0 8 9 156. -454. 454. <
8670 1 0 8 -9 156. -454. 454. <
8671 2 -4 8 -9 137. 454. 907. <
8671 1 4 8 9 137. 454. 907. <
8672 2 4 8 9 135. 907. 453. <
8672 1 -4 8 -9 135. 907. 453. <
8673 3 -9 -9 5 1134. 454. 454. <
8673 2 5 9 -9 1134. 454. 454. <
8673 1 -5 9 9 1134. 454. 454. <
8674 3 9 -9 -5 1168. 1815. 907. <
8674 2 -5 9 9 1168. 1815. 907. <
8674 1 5 9 -9 1168. 1815. 907. <
8675 3 9 -9 -3 7514. 8166. 906. o
8675 2 -3 9 9 7514. 8166. 906. o
8675 1 3 9 -9 7514. 8166. 906. o
8676 3 -9 -9 -1 7635. 6805. 909. o
8676 2 -1 9 -9 7635. 6805. 909. o
8676 1 1 9 9 7635. 6805. 909. o
8677 3 9 -9 3 7586. 3629. 913. o
8677 2 3 9 9 7586. 3629. 913. o
8677 1 -3 9 -9 7586. 3629. 913. o
8678 3 -9 -9 -5 1167. 454. 907. <
8678 2 -5 9 -9 1167. 454. 907. <
8678 1 5 9 9 1167. 454. 907. <
8679 3 9 -9 5 1135. 0. 907. <
8679 2 5 9 9 1135. 0. 907. <
8679 1 -5 9 -9 1135. 0. 907. <
8680 2 4 10 -9 111. 0. 454. <
8680 1 -4 10 9 111. 0. 454. <
8681 2 -4 10 9 111. 907. 453. <
8681 1 4 10 -9 111. 907. 453. <
8682 2 2 10 -9 647. 907. 907. <
8682 1 -2 10 9 647. 907. 907. <
8683 2 -2 10 9 647. 1815. 453. o
8683 1 2 10 -9 647. 1815. 453. o
8684 2 0 10 9 16. 907. 907. <
8684 1 0 10 -9 16. 907. 907. <
8685 2 -4 10 -9 111. 0. 907. <
8685 1 4 10 9 111. 0. 907. <
8686 2 4 10 9 111. 907. 453. <
8686 1 -4 10 -9 111. 907. 453. <
8687 2 4 12 -9 188. 2268. 906. o
8687 1 -4 12 9 188. 2268. 906. o
8688 2 -4 12 9 187. 1361. 907. <
8688 1 4 12 -9 187. 1361. 907. <
8689 2 2 12 -9 139. 907. 907. <
8689 1 -2 12 9 139. 907. 907. <
8690 2 -2 12 9 140. -454. 907. <
8690 1 2 12 -9 140. -454. 907. <
8691 2 0 12 9 445. 907. 907. <
8691 1 0 12 -9 445. 907. 907. <
8692 2 -2 12 -9 140. 907. 907. <
8692 1 2 12 9 140. 907. 907. <
8693 2 2 12 9 139. 907. 453. <
8693 1 -2 12 -9 139. 907. 453. <
8694 2 -4 12 -9 187. 907. 907. <
8694 1 4 12 9 187. 907. 907. <
8695 2 4 12 9 188. 454. 454. <
8695 1 -4 12 -9 188. 454. 454. <
8696 3 9 -13 -5 7584. 7712. 907. o
8696 2 -5 13 9 7584. 7712. 907. o
8696 1 5 13 -9 7584. 7712. 907. o
8697 3 9 -13 -1 76523. 77122. 894. o
8697 2 -1 13 9 76523. 77122. 894. o
8697 1 1 13 -9 76523. 77122. 894. o
8698 3 -9 -13 -1 76504. 72585. 989. o
8698 2 -1 13 -9 76504. 72585. 989. o
8698 1 1 13 9 76504. 72585. 989. o
8699 3 9 -13 1 75952. 77122. 881. o
8699 2 1 13 9 75952. 77122. 881. o
8699 1 -1 13 -9 75952. 77122. 881. o
8700 3 -9 -13 -5 7513. 6805. 909. o
8700 2 -5 13 -9 7513. 6805. 909. o
8700 1 5 13 9 7513. 6805. 909. o
8701 2 4 14 -9 208. -907. 907. <
8701 1 -4 14 9 208. -907. 907. <
8702 2 -4 14 9 206. 1361. 907. <
8702 1 4 14 -9 206. 1361. 907. <
8703 2 2 14 -9 140. 454. 907. <
8703 1 -2 14 9 140. 454. 907. <
8704 2 -2 14 9 142. 0. 907. <
8704 1 2 14 -9 142. 0. 907. <
8705 2 0 14 -9 563. 907. 907. <
8705 1 0 14 9 563. 907. 907. <
8706 2 0 14 9 563. 454. 454. <
8706 1 0 14 -9 563. 454. 454. <
8707 2 -2 14 -9 142. 454. 907. <
8707 1 2 14 9 142. 454. 907. <
8708 2 2 14 9 140. 0. 454. <
8708 1 -2 14 -9 140. 0. 454. <
8709 2 -4 14 -9 206. 907. 453. <
8709 1 4 14 9 206. 907. 453. <
8710 2 4 14 9 208. 907. 453. <
8710 1 -4 14 -9 208. 907. 453. <
8711 3 -9 -15 5 784. 907. 454. <
8711 2 5 15 -9 784. 907. 454. <
8711 1 -5 15 9 784. 907. 454. <
8712 3 9 -15 -5 806. 907. 454. <
8712 2 -5 15 9 806. 907. 454. <
8712 1 5 15 -9 806. 907. 454. <
8713 3 -9 -15 3 3089. 454. 908. <
8713 2 3 15 -9 3089. 454. 908. <
8713 1 -3 15 9 3089. 454. 908. <
8714 3 -9 -15 1 4389. -454. 909. <
8714 2 1 15 -9 4389. -454. 909. <
8714 1 -1 15 9 4389. -454. 909. <
8715 3 9 -15 -1 4434. 4537. 453. o
8715 2 -1 15 9 4434. 4537. 453. o
8715 1 1 15 -9 4434. 4537. 453. o
8716 3 9 -15 1 4390. 4083. 908. o
8716 2 1 15 9 4390. 4083. 908. o
8716 1 -1 15 -9 4390. 4083. 908. o
8717 3 9 -15 3 3084. 454. 456. <
8717 2 3 15 9 3084. 454. 456. <
8717 1 -3 15 -9 3084. 454. 456. <
8718 3 -9 -15 -5 800. 454. 454. <
8718 2 -5 15 -9 800. 454. 454. <
8718 1 5 15 9 800. 454. 454. <
8719 2 4 16 -9 17. -454. 454. <
8719 1 -4 16 9 17. -454. 454. <
8720 2 -4 16 9 18. -907. 907. <
8720 1 4 16 -9 18. -907. 907. <
8721 2 2 16 -9 808. 0. 907. <
8721 1 -2 16 9 808. 0. 907. <
8722 2 -2 16 9 805. 907. 907. <
8722 1 2 16 -9 805. 907. 907. <
8723 2 0 16 -9 51. -454. 454. <
8723 1 0 16 9 51. -454. 454. <
8724 2 -2 16 -9 805. 1361. 907. <
8724 1 2 16 9 805. 1361. 907. <
8725 2 2 16 9 808. 454. 454. <
8725 1 -2 16 -9 808. 454. 454. <
8726 2 -4 16 -9 18. -907. 453. <
8726 1 4 16 9 18. -907. 453. <
8727 2 4 16 9 17. 907. 453. <
8727 1 -4 16 -9 17. 907. 453. <
8728 3 -9 -17 5 191. 0. 454. <
8728 2 5 17 -9 191. 0. 454. <
8728 1 -5 17 9 191. 0. 454. <
8729 3 9 -17 -5 199. 1815. 452. o
8729 2 -5 17 9 199. 1815. 452. o
8729 1 5 17 -9 199. 1815. 452. o
8730 3 -9 -17 3 98. 1361. 907. <
8730 2 3 17 -9 98. 1361. 907. <
8730 1 -3 17 9 98. 1361. 907. <
8731 3 9 -17 -3 95. -1361. 907. <
8731 2 -3 17 9 95. -1361. 907. <
8731 1 3 17 -9 95. -1361. 907. <
8732 3 9 -17 -1 535. 907. 453. <
8732 2 -1 17 9 535. 907. 453. <
8732 1 1 17 -9 535. 907. 453. <
8733 3 -9 -17 -1 533. 0. 907. <
8733 2 -1 17 -9 533. 0. 907. <
8733 1 1 17 9 533. 0. 907. <
8734 3 9 -17 1 535. 1361. 907. <
8734 2 1 17 9 535. 1361. 907. <
8734 1 -1 17 -9 535. 1361. 907. <
8735 3 -9 -17 -3 99. 2268. 906. o
8735 2 -3 17 -9 99. 2268. 906. o
8735 1 3 17 9 99. 2268. 906. o
8736 3 9 -17 3 94. 1361. 453. o
8736 2 3 17 9 94. 1361. 453. o
8736 1 -3 17 -9 94. 1361. 453. o
8737 3 -9 -17 -5 194. 907. 907. <
8737 2 -5 17 -9 194. 907. 907. <
8737 1 5 17 9 194. 907. 907. <
8738 3 9 -17 5 196. 0. 454. <
8738 2 5 17 9 196. 0. 454. <
8738 1 -5 17 -9 196. 0. 454. <
8739 2 4 18 -9 3995. 4990. 906. o
8739 1 -4 18 9 3995. 4990. 906. o
8740 2 -4 18 9 3989. 4990. 906. o
8740 1 4 18 -9 3989. 4990. 906. o
8741 2 2 18 -9 1562. 907. 908. <
8741 1 -2 18 9 1562. 907. 908. <
8742 2 -2 18 9 1566. 907. 908. <
8742 1 2 18 -9 1566. 907. 908. <
8743 2 0 18 -9 8113. 9073. 905. o
8743 1 0 18 9 8113. 9073. 905. o
8744 2 -2 18 -9 1566. 3176. 906. o
8744 1 2 18 9 1566. 3176. 906. o
8745 2 2 18 9 1562. 2722. 452. o
8745 1 -2 18 -9 1562. 2722. 452. o
8746 2 -4 18 -9 3989. 1815. 909. <
8746 1 4 18 9 3989. 1815. 909. <
8747 2 4 18 9 3995. 4083. 453. o
8747 1 -4 18 -9 3995. 4083. 453. o
8748 3 -9 -19 5 63. 907. 453. <
8748 2 5 19 -9 63. 907. 453. <
8748 1 -5 19 9 63. 907. 453. <
8749 3 9 -19 -5 71. 454. 454. <
8749 2 -5 19 9 71. 454. 454. <
8749 1 5 19 -9 71. 454. 454. <
8750 3 -9 -19 3 1033. 0. 454. <
8750 2 3 19 -9 1033. 0. 454. <
8750 1 -3 19 9 1033. 0. 454. <
8751 3 9 -19 -3 1016. 454. 454. <
8751 2 -3 19 9 1016. 454. 454. <
8751 1 3 19 -9 1016. 454. 454. <
8752 3 9 -19 -1 358. 1815. 907. <
8752 2 -1 19 9 358. 1815. 907. <
8752 1 1 19 -9 358. 1815. 907. <
8753 3 -9 -19 -1 357. 1361. 453. o
8753 2 -1 19 -9 357. 1361. 453. o
8753 1 1 19 9 357. 1361. 453. o
8754 3 9 -19 1 343. 1361. 453. o
8754 2 1 19 9 343. 1361. 453. o
8754 1 -1 19 -9 343. 1361. 453. o
8755 3 -9 -19 -3 1019. 907. 907. <
8755 2 -3 19 -9 1019. 907. 907. <
8755 1 3 19 9 1019. 907. 907. <
8756 3 9 -19 3 1029. 454. 454. <
8756 2 3 19 9 1029. 454. 454. <
8756 1 -3 19 -9 1029. 454. 454. <
8757 3 -9 -19 -5 67. 1361. 907. <
8757 2 -5 19 -9 67. 1361. 907. <
8757 1 5 19 9 67. 1361. 907. <
8758 3 9 -19 5 66. 907. 453. <
8758 2 5 19 9 66. 907. 453. <
8758 1 -5 19 -9 66. 907. 453. <
8759 2 4 20 -9 599. 1361. 907. <
8759 1 -4 20 9 599. 1361. 907. <
8760 2 -4 20 9 610. 2722. 906. o
8760 1 4 20 -9 610. 2722. 906. o
8761 2 2 20 -9 397. 907. 453. <
8761 1 -2 20 9 397. 907. 453. <
8762 2 -2 20 9 393. 2268. 906. o
8762 1 2 20 -9 393. 2268. 906. o
8763 2 0 20 -9 1136. 1361. 907. <
8763 1 0 20 9 1136. 1361. 907. <
8764 2 -2 20 -9 393. 907. 907. <
8764 1 2 20 9 393. 907. 907. <
8765 2 2 20 9 397. 1815. 453. o
8765 1 -2 20 -9 397. 1815. 453. o
8766 2 -4 20 -9 610. 0. 907. <
8766 1 4 20 9 610. 0. 907. <
8767 2 4 20 9 599. -454. 454. <
8767 1 -4 20 -9 599. -454. 454. <
8768 3 -9 -21 5 749. 454. 454. <
8768 2 5 21 -9 749. 454. 454. <
8768 1 -5 21 9 749. 454. 454. <
8769 3 9 -21 -5 768. 454. 454. <
8769 2 -5 21 9 768. 454. 454. <
8769 1 5 21 -9 768. 454. 454. <
8770 3 -9 -21 3 4082. 1815. 909. <
8770 2 3 21 -9 4082. 1815. 909. <
8770 1 -3 21 9 4082. 1815. 909. <
8771 3 9 -21 -3 4039. 4537. 452. o
8771 2 -3 21 9 4039. 4537. 452. o
8771 1 3 21 -9 4039. 4537. 452. o
8772 3 -9 -21 1 3343. 3629. 453. o
8772 2 1 21 -9 3343. 3629. 453. o
8772 1 -1 21 9 3343. 3629. 453. o
8773 3 -9 -21 -1 3409. 2722. 455. o
8773 2 -1 21 -9 3409. 2722. 455. o
8773 1 1 21 9 3409. 2722. 455. o
8774 3 9 -21 1 3342. 3176. 454. o
8774 2 1 21 9 3342. 3176. 454. o
8774 1 -1 21 -9 3342. 3176. 454. o
8775 3 -9 -21 -3 4036. 1815. 909. <
8775 2 -3 21 -9 4036. 1815. 909. <
8775 1 3 21 9 4036. 1815. 909. <
8776 3 9 -21 3 4085. 1361. 909. <
8776 2 3 21 9 4085. 1361. 909. <
8776 1 -3 21 -9 4085. 1361. 909. <
8777 3 -9 -21 -5 770. 907. 454. <
8777 2 -5 21 -9 770. 907. 454. <
8777 1 5 21 9 770. 907. 454. <
8778 3 9 -21 5 747. -907. 453. <
8778 2 5 21 9 747. -907. 453. <
8778 1 -5 21 -9 747. -907. 453. <
8779 2 4 22 -9 432. 1361. 453. o
8779 1 -4 22 9 432. 1361. 453. o
8780 2 -4 22 9 431. 1815. 907. <
8780 1 4 22 -9 431. 1815. 907. <
8781 2 2 22 -9 571. 1815. 453. o
8781 1 -2 22 9 571. 1815. 453. o
8782 2 -2 22 9 571. 454. 907. <
8782 1 2 22 -9 571. 454. 907. <
8783 2 0 22 -9 697. 1361. 907. <
8783 1 0 22 9 697. 1361. 907. <
8784 2 0 22 9 697. 454. 907. <
8784 1 0 22 -9 697. 454. 907. <
8785 2 -2 22 -9 571. 907. 907. <
8785 1 2 22 9 571. 907. 907. <
8786 2 2 22 9 571. 1361. 907. <
8786 1 -2 22 -9 571. 1361. 907. <
8787 2 -4 22 -9 431. 907. 453. <
8787 1 4 22 9 431. 907. 453. <
8788 2 4 22 9 432. 454. 454. <
8788 1 -4 22 -9 432. 454. 454. <
8789 3 -9 -23 5 4046. 4083. 454. o
8789 2 5 23 -9 4046. 4083. 454. o
8789 1 -5 23 9 4046. 4083. 454. o
8790 3 9 -23 -5 4146. 2268. 909. o
8790 2 -5 23 9 4146. 2268. 909. o
8790 1 5 23 -9 4146. 2268. 909. o
8791 3 9 -23 -3 30118. 24497. 950. o
8791 2 -3 23 9 30118. 24497. 950. o
8791 1 3 23 -9 30118. 24497. 950. o
8792 3 -9 -23 -1 26735. 22229. 938. o
8792 2 -1 23 -9 26735. 22229. 938. o
8792 1 1 23 9 26735. 22229. 938. o
8793 3 9 -23 5 4077. 2268. 457. o
8793 2 5 23 9 4077. 2268. 457. o
8793 1 -5 23 -9 4077. 2268. 457. o
8794 2 4 24 -9 333. 454. 454. <
8794 1 -4 24 9 333. 454. 454. <
8795 2 -4 24 9 332. -454. 907. <
8795 1 4 24 -9 332. -454. 907. <
8796 2 2 24 -9 294. 907. 453. <
8796 1 -2 24 9 294. 907. 453. <
8797 2 -2 24 9 295. 907. 453. <
8797 1 2 24 -9 295. 907. 453. <
8798 2 0 24 -9 336. 907. 907. <
8798 1 0 24 9 336. 907. 907. <
8799 2 0 24 9 336. 1815. 907. <
8799 1 0 24 -9 336. 1815. 907. <
8800 2 -2 24 -9 295. 907. 907. <
8800 1 2 24 9 295. 907. 907. <
8801 2 -4 24 -9 332. 1361. 907. <
8801 1 4 24 9 332. 1361. 907. <
8802 2 4 24 9 333. 1361. 453. o
8802 1 -4 24 -9 333. 1361. 453. o
8803 3 -9 -25 5 5876. 6351. 452. o
8803 2 5 25 -9 5876. 6351. 452. o
8803 1 -5 25 9 5876. 6351. 452. o
8804 3 9 -25 -5 6091. 4990. 909. o
8804 2 -5 25 9 6091. 4990. 909. o
8804 1 5 25 -9 6091. 4990. 909. o
8805 3 9 -25 -3 50626. 43551. 1423. o
8805 2 -3 25 9 50626. 43551. 1423. o
8805 1 3 25 -9 50626. 43551. 1423. o
8806 3 -9 -25 -1 35026. 30849. 946. o
8806 2 -1 25 -9 35026. 30849. 946. o
8806 1 1 25 9 35026. 30849. 946. o
8807 3 9 -25 3 50930. 58522. 1275. o
8807 2 3 25 9 50930. 58522. 1275. o
8807 1 -3 25 -9 50930. 58522. 1275. o
8808 3 9 -25 5 5925. 4083. 459. o
8808 2 5 25 9 5925. 4083. 459. o
8808 1 -5 25 -9 5925. 4083. 459. o
8809 2 4 26 -9 61. 1815. 452. o
8809 1 -4 26 9 61. 1815. 452. o
8810 2 -4 26 9 60. 3176. 905. o
8810 1 4 26 -9 60. 3176. 905. o
8811 2 2 26 -9 36. 907. 453. <
8811 1 -2 26 9 36. 907. 453. <
8812 2 -2 26 9 37. -907. 453. <
8812 1 2 26 -9 37. -907. 453. <
8813 2 0 26 -9 5. 907. 907. <
8813 1 0 26 9 5. 907. 907. <
8814 2 0 26 9 5. 907. 453. <
8814 1 0 26 -9 5. 907. 453. <
8815 2 -2 26 -9 37. 2268. 906. o
8815 1 2 26 9 37. 2268. 906. o
8816 2 2 26 9 36. -454. 907. <
8816 1 -2 26 -9 36. -454. 907. <
8817 2 -4 26 -9 60. 0. 454. <
8817 1 4 26 9 60. 0. 454. <
8818 2 4 26 9 61. 454. 454. <
8818 1 -4 26 -9 61. 454. 454. <
8819 3 -9 -27 3 284. -454. 454. <
8819 2 3 27 -9 284. -454. 454. <
8819 1 -3 27 9 284. -454. 454. <
8820 3 9 -27 -3 279. -1361. 907. <
8820 2 -3 27 9 279. -1361. 907. <
8820 1 3 27 -9 279. -1361. 907. <
8821 3 -9 -27 1 322. 454. 454. <
8821 2 1 27 -9 322. 454. 454. <
8821 1 -1 27 9 322. 454. 454. <
8822 3 9 -27 -1 336. -2268. 906. <
8822 2 -1 27 9 336. -2268. 906. <
8822 1 1 27 -9 336. -2268. 906. <
8823 3 -9 -27 -1 334. -454. 454. <
8823 2 -1 27 -9 334. -454. 454. <
8823 1 1 27 9 334. -454. 454. <
8824 3 9 -27 1 325. 454. 454. <
8824 2 1 27 9 325. 454. 454. <
8824 1 -1 27 -9 325. 454. 454. <
8825 3 9 -27 3 281. -1361. 907. <
8825 2 3 27 9 281. -1361. 907. <
8825 1 -3 27 -9 281. -1361. 907. <
8826 2 4 28 -9 127. 907. 453. <
8826 1 -4 28 9 127. 907. 453. <
8827 2 -4 28 9 131. -2268. 906. <
8827 1 4 28 -9 131. -2268. 906. <
8828 2 2 28 -9 168. 907. 453. <
8828 1 -2 28 9 168. 907. 453. <
8829 2 -2 28 9 166. 454. 454. <
8829 1 2 28 -9 166. 454. 454. <
8830 2 0 28 -9 299. 1361. 907. <
8830 1 0 28 9 299. 1361. 907. <
8831 2 0 28 9 299. 0. 454. <
8831 1 0 28 -9 299. 0. 454. <
8832 2 -2 28 -9 166. 0. 454. <
8832 1 2 28 9 166. 0. 454. <
8833 2 2 28 9 168. 454. 454. <
8833 1 -2 28 -9 168. 454. 454. <
8834 2 -4 28 -9 131. 1361. 907. <
8834 1 4 28 9 131. 1361. 907. <
8835 2 4 28 9 127. 907. 453. <
8835 1 -4 28 -9 127. 907. 453. <
8836 3 -9 -29 3 140. -907. 453. <
8836 2 3 29 -9 140. -907. 453. <
8836 1 -3 29 9 140. -907. 453. <
8837 3 9 -29 -3 135. 454. 907. <
8837 2 -3 29 9 135. 454. 907. <
8837 1 3 29 -9 135. 454. 907. <
8838 3 -9 -29 1 297. 0. 454. <
8838 2 1 29 -9 297. 0. 454. <
8838 1 -1 29 9 297. 0. 454. <
8839 3 9 -29 -1 298. 1361. 453. o
8839 2 -1 29 9 298. 1361. 453. o
8839 1 1 29 -9 298. 1361. 453. o
8840 3 -9 -29 -1 298. 1361. 907. <
8840 2 -1 29 -9 298. 1361. 907. <
8840 1 1 29 9 298. 1361. 907. <
8841 3 9 -29 1 298. 454. 454. <
8841 2 1 29 9 298. 454. 454. <
8841 1 -1 29 -9 298. 454. 454. <
8842 3 -9 -29 -3 138. 907. 453. <
8842 2 -3 29 -9 138. 907. 453. <
8842 1 3 29 9 138. 907. 453. <
8843 3 9 -29 3 137. 907. 453. <
8843 2 3 29 9 137. 907. 453. <
8843 1 -3 29 -9 137. 907. 453. <
8844 2 4 30 -9 2116. 1815. 454. o
8844 1 -4 30 9 2116. 1815. 454. o
8845 2 -4 30 9 2109. 1815. 907. <
8845 1 4 30 -9 2109. 1815. 907. <
8846 2 2 30 -9 4943. 4537. 455. o
8846 1 -2 30 9 4943. 4537. 455. o
8847 2 -2 30 9 4950. 3176. 909. o
8847 1 2 30 -9 4950. 3176. 909. o
8848 2 0 30 -9 2178. 2722. 453. o
8848 1 0 30 9 2178. 2722. 453. o
8849 2 0 30 9 2178. 2268. 454. o
8849 1 0 30 -9 2178. 2268. 454. o
8850 2 -2 30 -9 4950. 3629. 909. o
8850 1 2 30 9 4950. 3629. 909. o
8851 2 2 30 9 4943. 4083. 456. o
8851 1 -2 30 -9 4943. 4083. 456. o
8852 2 -4 30 -9 2109. 0. 908. <
8852 1 4 30 9 2109. 0. 908. <
8853 2 4 30 9 2116. 1815. 454. o
8853 1 -4 30 -9 2116. 1815. 454. o
8854 3 -9 -31 3 923. 907. 454. <
8854 2 3 31 -9 923. 907. 454. <
8854 1 -3 31 9 923. 907. 454. <
8855 3 9 -31 -3 918. 454. 907. <
8855 2 -3 31 9 918. 454. 907. <
8855 1 3 31 -9 918. 454. 907. <
8856 3 -9 -31 1 927. 454. 454. <
8856 2 1 31 -9 927. 454. 454. <
8856 1 -1 31 9 927. 454. 454. <
8857 3 9 -31 -1 934. 907. 454. <
8857 2 -1 31 9 934. 907. 454. <
8857 1 1 31 -9 934. 907. 454. <
8858 3 -9 -31 -1 933. 907. 907. <
8858 2 -1 31 -9 933. 907. 907. <
8858 1 1 31 9 933. 907. 907. <
8859 3 9 -31 1 927. 907. 454. <
8859 2 1 31 9 927. 907. 454. <
8859 1 -1 31 -9 927. 907. 454. <
8860 3 -9 -31 -3 919. 907. 907. <
8860 2 -3 31 -9 919. 907. 907. <
8860 1 3 31 9 919. 907. 907. <
8861 3 9 -31 3 922. 907. 454. <
8861 2 3 31 9 922. 907. 454. <
8861 1 -3 31 -9 922. 907. 454. <
8862 2 4 32 -9 536. 0. 454. <
8862 1 -4 32 9 536. 0. 454. <
8863 2 -4 32 9 544. 907. 907. <
8863 1 4 32 -9 544. 907. 907. <
8864 2 2 32 -9 2341. 2722. 453. o
8864 1 -2 32 9 2341. 2722. 453. o
8865 2 -2 32 9 2332. 907. 908. <
8865 1 2 32 -9 2332. 907. 908. <
8866 2 0 32 -9 90. 907. 453. <
8866 1 0 32 9 90. 907. 453. <
8867 2 0 32 9 90. 907. 453. <
8867 1 0 32 -9 90. 907. 453. <
8868 2 -2 32 -9 2332. 2722. 907. o
8868 1 2 32 9 2332. 2722. 907. o
8869 2 2 32 9 2341. 907. 455. <
8869 1 -2 32 -9 2341. 907. 455. <
8870 2 -4 32 -9 544. 2268. 906. o
8870 1 4 32 9 544. 2268. 906. o
8871 2 4 32 9 536. 1815. 453. o
8871 1 -4 32 -9 536. 1815. 453. o
8872 3 -9 -33 3 3006. 1361. 908. <
8872 2 3 33 -9 3006. 1361. 908. <
8872 1 -3 33 9 3006. 1361. 908. <
8873 3 9 -33 -3 2990. 3176. 907. o
8873 2 -3 33 9 2990. 3176. 907. o
8873 1 3 33 -9 2990. 3176. 907. o
8874 3 -9 -33 1 3583. 4083. 453. o
8874 2 1 33 -9 3583. 4083. 453. o
8874 1 -1 33 9 3583. 4083. 453. o
8875 3 9 -33 -1 3605. 2722. 455. o
8875 2 -1 33 9 3605. 2722. 455. o
8875 1 1 33 -9 3605. 2722. 455. o
8876 3 -9 -33 -1 3606. 4537. 906. o
8876 2 -1 33 -9 3606. 4537. 906. o
8876 1 1 33 9 3606. 4537. 906. o
8877 3 9 -33 1 3582. 3629. 454. o
8877 2 1 33 9 3582. 3629. 454. o
8877 1 -1 33 -9 3582. 3629. 454. o
8878 3 -9 -33 -3 2988. 454. 908. <
8878 2 -3 33 -9 2988. 454. 908. <
8878 1 3 33 9 2988. 454. 908. <
8879 3 9 -33 3 3009. 2722. 454. o
8879 2 3 33 9 3009. 2722. 454. o
8879 1 -3 33 -9 3009. 2722. 454. o
8880 2 4 34 -9 336. 1361. 453. o
8880 1 -4 34 9 336. 1361. 453. o
8881 2 -4 34 9 336. 0. 907. <
8881 1 4 34 -9 336. 0. 907. <
8882 2 2 34 -9 525. 907. 453. <
8882 1 -2 34 9 525. 907. 453. <
8883 2 -2 34 9 525. 0. 907. <
8883 1 2 34 -9 525. 0. 907. <
8884 2 0 34 -9 464. 907. 453. <
8884 1 0 34 9 464. 907. 453. <
8885 2 0 34 9 464. 454. 907. <
8885 1 0 34 -9 464. 454. 907. <
8886 2 -2 34 -9 525. -907. 907. <
8886 1 2 34 9 525. -907. 907. <
8887 2 2 34 9 525. -907. 453. <
8887 1 -2 34 -9 525. -907. 453. <
8888 2 -4 34 -9 336. -454. 454. <
8888 1 4 34 9 336. -454. 454. <
8889 2 4 34 9 336. 1815. 453. o
8889 1 -4 34 -9 336. 1815. 453. o
8890 3 -9 -35 3 13218. 10888. 1366. o
8890 2 3 35 -9 13218. 10888. 1366. o
8890 1 -3 35 9 13218. 10888. 1366. o
8891 3 9 -35 -3 13174. 10434. 916. o
8891 2 -3 35 9 13174. 10434. 916. o
8891 1 3 35 -9 13174. 10434. 916. o
8892 3 -9 -35 1 13603. 9980. 919. o
8892 2 1 35 -9 13603. 9980. 919. o
8892 1 -1 35 9 13603. 9980. 919. o
8893 3 9 -35 -1 13609. 9980. 919. o
8893 2 -1 35 9 13609. 9980. 919. o
8893 1 1 35 -9 13609. 9980. 919. o
8894 3 -9 -35 -1 13607. 7712. 924. o
8894 2 -1 35 -9 13607. 7712. 924. o
8894 1 1 35 9 13607. 7712. 924. o
8895 3 9 -35 1 13605. 10888. 472. o
8895 2 1 35 9 13605. 10888. 472. o
8895 1 -1 35 -9 13605. 10888. 472. o
8896 3 -9 -35 -3 13183. 10888. 915. o
8896 2 -3 35 -9 13183. 10888. 915. o
8896 1 3 35 9 13183. 10888. 915. o
8897 3 9 -35 3 13208. 12249. 1363. o
8897 2 3 35 9 13208. 12249. 1363. o
8897 1 -3 35 -9 13208. 12249. 1363. o
8898 2 4 36 -9 159. 0. 454. <
8898 1 -4 36 9 159. 0. 454. <
8899 2 -4 36 9 158. 454. 907. <
8899 1 4 36 -9 158. 454. 907. <
8900 2 2 36 -9 78. 907. 453. <
8900 1 -2 36 9 78. 907. 453. <
8901 2 -2 36 9 79. -907. 907. <
8901 1 2 36 -9 79. -907. 907. <
8902 2 0 36 -9 539. 907. 453. <
8902 1 0 36 9 539. 907. 453. <
8903 2 0 36 9 539. 454. 907. <
8903 1 0 36 -9 539. 454. 907. <
8904 2 -2 36 -9 79. 1361. 907. <
8904 1 2 36 9 79. 1361. 907. <
8905 2 2 36 9 78. 454. 454. <
8905 1 -2 36 -9 78. 454. 454. <
8906 2 -4 36 -9 158. -454. 907. <
8906 1 4 36 9 158. -454. 907. <
8907 2 4 36 9 159. 1815. 907. <
8907 1 -4 36 -9 159. 1815. 907. <
8908 3 -9 -37 3 39337. 41736. 1342. o
8908 2 3 37 -9 39337. 41736. 1342. o
8908 1 -3 37 9 39337. 41736. 1342. o
8909 3 9 -37 -3 39200. 32663. 1405. o
8909 2 -3 37 9 39200. 32663. 1405. o
8909 1 3 37 -9 39200. 32663. 1405. o
8910 3 -9 -37 1 46296. 46726. 1357. o
8910 2 1 37 -9 46296. 46726. 1357. o
8910 1 -1 37 9 46296. 46726. 1357. o
8911 3 9 -37 -1 46465. 49448. 1332. o
8911 2 -1 37 9 46465. 49448. 1332. o
8911 1 1 37 -9 46465. 49448. 1332. o
8912 3 -9 -37 -1 46463. 32210. 1461. o
8912 2 -1 37 -9 46463. 32210. 1461. o
8912 1 1 37 9 46463. 32210. 1461. o
8913 3 -9 -37 -3 39221. 21322. 1041. o
8913 2 -3 37 -9 39221. 21322. 1041. o
8913 1 3 37 9 39221. 21322. 1041. o
8914 3 9 -37 3 39316. 45366. 1309. o
8914 2 3 37 9 39316. 45366. 1309. o
8914 1 -3 37 -9 39316. 45366. 1309. o
8915 2 2 38 -9 81. 1361. 453. o
8915 1 -2 38 9 81. 1361. 453. o
8916 2 -2 38 9 81. -454. 907. <
8916 1 2 38 -9 81. -454. 907. <
8917 2 0 38 -9 125. 907. 453. <
8917 1 0 38 9 125. 907. 453. <
8918 2 0 38 9 125. 454. 454. <
8918 1 0 38 -9 125. 454. 454. <
8919 2 -2 38 -9 81. 1815. 907. <
8919 1 2 38 9 81. 1815. 907. <
8920 2 2 38 9 81. 454. 454. <
8920 1 -2 38 -9 81. 454. 454. <
8921 3 -9 -39 3 439. -454. 907. <
8921 2 3 39 -9 439. -454. 907. <
8921 1 -3 39 9 439. -454. 907. <
8922 3 9 -39 -3 436. -1815. 907. <
8922 2 -3 39 9 436. -1815. 907. <
8922 1 3 39 -9 436. -1815. 907. <
8923 3 -9 -39 1 238. -907. 907. <
8923 2 1 39 -9 238. -907. 907. <
8923 1 -1 39 9 238. -907. 907. <
8924 3 9 -39 -1 235. 454. 454. <
8924 2 -1 39 9 235. 454. 454. <
8924 1 1 39 -9 235. 454. 454. <
8925 3 -9 -39 -1 236. -907. 907. <
8925 2 -1 39 -9 236. -907. 907. <
8925 1 1 39 9 236. -907. 907. <
8926 3 -9 -39 -3 438. -2722. 906. <
8926 2 -3 39 -9 438. -2722. 906. <
8926 1 3 39 9 438. -2722. 906. <
8927 3 9 -39 3 438. -454. 454. <
8927 2 3 39 9 438. -454. 454. <
8927 1 -3 39 -9 438. -454. 454. <
8928 2 2 40 -9 288. 907. 453. <
8928 1 -2 40 9 288. 907. 453. <
8929 2 -2 40 9 286. 907. 907. <
8929 1 2 40 -9 286. 907. 907. <
8930 2 0 40 -9 81. -907. 453. <
8930 1 0 40 9 81. -907. 453. <
8931 2 0 40 9 81. 454. 454. <
8931 1 0 40 -9 81. 454. 454. <
8932 2 -2 40 -9 286. -1815. 907. <
8932 1 2 40 9 286. -1815. 907. <
8933 2 2 40 9 288. 907. 453. <
8933 1 -2 40 -9 288. 907. 453. <
8934 3 -9 -41 3 34. 0. 454. <
8934 2 3 41 -9 34. 0. 454. <
8934 1 -3 41 9 34. 0. 454. <
8935 3 9 -41 -3 32. 4083. 904. o
8935 2 -3 41 9 32. 4083. 904. o
8935 1 3 41 -9 32. 4083. 904. o
8936 3 -9 -41 1 139. 907. 453. <
8936 2 1 41 -9 139. 907. 453. <
8936 1 -1 41 9 139. 907. 453. <
8937 3 9 -41 -1 142. -454. 454. <
8937 2 -1 41 9 142. -454. 454. <
8937 1 1 41 -9 142. -454. 454. <
8938 3 -9 -41 -1 142. 0. 907. <
8938 2 -1 41 -9 142. 0. 907. <
8938 1 1 41 9 142. 0. 907. <
8939 3 9 -41 1 140. 907. 453. <
8939 2 1 41 9 140. 907. 453. <
8939 1 -1 41 -9 140. 907. 453. <
8940 3 -9 -41 -3 33. 907. 907. <
8940 2 -3 41 -9 33. 907. 907. <
8940 1 3 41 9 33. 907. 907. <
8941 3 9 -41 3 33. 0. 907. <
8941 2 3 41 9 33. 0. 907. <
8941 1 -3 41 -9 33. 0. 907. <
8942 2 2 42 -9 519. -907. 453. <
8942 1 -2 42 9 519. -907. 453. <
8943 2 -2 42 9 523. 2268. 906. o
8943 1 2 42 -9 523. 2268. 906. o
8944 2 0 42 -9 3371. 1815. 456. o
8944 1 0 42 9 3371. 1815. 456. o
8945 2 0 42 9 3371. 3629. 453. o
8945 1 0 42 -9 3371. 3629. 453. o
8946 2 -2 42 -9 523. 907. 453. <
8946 1 2 42 9 523. 907. 453. <
8947 2 2 42 9 519. 2268. 452. o
8947 1 -2 42 -9 519. 2268. 452. o
8948 3 -9 -43 1 419. 1361. 453. o
8948 2 1 43 -9 419. 1361. 453. o
8948 1 -1 43 9 419. 1361. 453. o
8949 3 9 -43 -1 418. 907. 907. <
8949 2 -1 43 9 418. 907. 907. <
8949 1 1 43 -9 418. 907. 907. <
8950 3 -9 -43 -1 418. 1815. 907. <
8950 2 -1 43 -9 418. 1815. 907. <
8950 1 1 43 9 418. 1815. 907. <
8951 3 9 -43 1 419. 454. 454. <
8951 2 1 43 9 419. 454. 454. <
8951 1 -1 43 -9 419. 454. 454. <
8952 2 2 44 -9 352. 2722. 451. o
8952 1 -2 44 9 352. 2722. 451. o
8953 2 -2 44 9 349. 1361. 907. <
8953 1 2 44 -9 349. 1361. 907. <
8954 2 0 44 -9 998. 1815. 453. o
8954 1 0 44 9 998. 1815. 453. o
8955 2 0 44 9 998. 454. 454. <
8955 1 0 44 -9 998. 454. 454. <
8956 2 -2 44 -9 349. 907. 907. <
8956 1 2 44 9 349. 907. 907. <
8957 2 2 44 9 352. 907. 453. <
8957 1 -2 44 -9 352. 907. 453. <
8958 3 -9 -45 1 1969. 1815. 454. o
8958 2 1 45 -9 1969. 1815. 454. o
8958 1 -1 45 9 1969. 1815. 454. o
8959 3 9 -45 -1 1975. 1361. 908. <
8959 2 -1 45 9 1975. 1361. 908. <
8959 1 1 45 -9 1975. 1361. 908. <
8960 3 -9 -45 -1 1975. 2722. 907. o
8960 2 -1 45 -9 1975. 2722. 907. o
8960 1 1 45 9 1975. 2722. 907. o
8961 3 9 -45 1 1968. 2722. 453. o
8961 2 1 45 9 1968. 2722. 453. o
8961 1 -1 45 -9 1968. 2722. 453. o
8962 2 2 46 -9 160. 454. 454. <
8962 1 -2 46 9 160. 454. 454. <
8963 2 -2 46 9 160. 907. 453. <
8963 1 2 46 -9 160. 907. 453. <
8964 2 0 46 -9 166. 0. 454. <
8964 1 0 46 9 166. 0. 454. <
8965 2 0 46 9 166. 907. 453. <
8965 1 0 46 -9 166. 907. 453. <
8966 2 -2 46 -9 160. 0. 907. <
8966 1 2 46 9 160. 0. 907. <
8967 2 2 46 9 160. 907. 907. <
8967 1 -2 46 -9 160. 907. 907. <
8968 3 -9 -47 1 6707. 4083. 461. o
8968 2 1 47 -9 6707. 4083. 461. o
8968 1 -1 47 9 6707. 4083. 461. o
8969 3 9 -47 -1 6716. 5444. 458. o
8969 2 -1 47 9 6716. 5444. 458. o
8969 1 1 47 -9 6716. 5444. 458. o
8970 3 -9 -47 -1 6715. 3176. 912. o
8970 2 -1 47 -9 6715. 3176. 912. o
8970 1 1 47 9 6715. 3176. 912. o
8971 3 9 -47 1 6708. 4537. 460. o
8971 2 1 47 9 6708. 4537. 460. o
8971 1 -1 47 -9 6708. 4537. 460. o
8972 2 0 48 -9 24. -454. 454. <
8972 1 0 48 9 24. -454. 454. <
8973 2 0 48 9 24. 0. 454. <
8973 1 0 48 -9 24. 0. 454. <
8974 3 -9 -49 1 13212. 8619. 480. o
8974 2 1 49 -9 13212. 8619. 480. o
8974 1 -1 49 9 13212. 8619. 480. o
8975 3 9 -49 -1 13254. 10434. 917. o
8975 2 -1 49 9 13254. 10434. 917. o
8975 1 1 49 -9 13254. 10434. 917. o
8976 3 -9 -49 -1 13249. 12249. 1363. o
8976 2 -1 49 -9 13249. 12249. 1363. o
8976 1 1 49 9 13249. 12249. 1363. o
8977 3 9 -49 1 13217. 10434. 472. o
8977 2 1 49 9 13217. 10434. 472. o
8977 1 -1 49 -9 13217. 10434. 472. o
8978 2 0 50 -9 8. 0. 454. <
8978 1 0 50 9 8. 0. 454. <
8979 2 0 50 9 8. 907. 907. <
8979 1 0 50 -9 8. 907. 907. <
8980 2 3 1 -10 55. 454. 454. <
8980 1 -3 1 10 55. 454. 454. <
8981 2 -3 1 10 54. 454. 907. <
8981 1 3 1 -10 54. 454. 907. <
8982 2 1 1 -10 31. -454. 454. <
8982 1 -1 1 10 31. -454. 454. <
8983 2 -1 1 10 32. 454. 454. <
8983 1 1 1 -10 32. 454. 454. <
8984 2 1 1 10 31. -454. 454. <
8984 1 -1 1 -10 31. -454. 454. <
8985 2 -3 1 -10 54. 907. 453. <
8985 1 3 1 10 54. 907. 453. <
8986 2 3 1 10 55. 907. 453. <
8986 1 -3 1 -10 55. 907. 453. <
8987 3 10 -2 -2 6517. 7712. 905. o
8987 2 -2 2 10 6517. 7712. 905. o
8987 1 2 2 -10 6517. 7712. 905. o
8988 3 -10 -2 0 2662. 3176. 907. o
8988 2 0 2 -10 2662. 3176. 907. o
8988 1 0 2 10 2662. 3176. 907. o
8989 2 3 3 -10 33. -454. 454. <
8989 1 -3 3 10 33. -454. 454. <
8990 2 -3 3 10 34. 454. 454. <
8990 1 3 3 -10 34. 454. 454. <
8991 2 1 3 -10 9. 454. 454. <
8991 1 -1 3 10 9. 454. 454. <
8992 2 -1 3 10 10. 454. 454. <
8992 1 1 3 -10 10. 454. 454. <
8993 2 -1 3 -10 10. -454. 454. <
8993 1 1 3 10 10. -454. 454. <
8994 2 1 3 10 9. -454. 454. <
8994 1 -1 3 -10 9. -454. 454. <
8995 2 -3 3 -10 34. -907. 453. <
8995 1 3 3 10 34. -907. 453. <
8996 2 3 3 10 33. 454. 454. <
8996 1 -3 3 -10 33. 454. 454. <
8997 3 -10 -4 0 422. 454. 907. <
8997 2 0 4 -10 422. 454. 907. <
8997 1 0 4 10 422. 454. 907. <
8998 3 10 -4 0 417. 907. 907. <
8998 2 0 4 10 417. 907. 907. <
8998 1 0 4 -10 417. 907. 907. <
8999 3 -10 -4 -2 5270. 4990. 908. o
8999 2 -2 4 -10 5270. 4990. 908. o
8999 1 2 4 10 5270. 4990. 908. o
9000 2 3 5 -10 76. -454. 454. <
9000 1 -3 5 10 76. -454. 454. <
9001 2 -3 5 10 74. 907. 453. <
9001 1 3 5 -10 74. 907. 453. <
9002 2 1 5 -10 183. 907. 453. <
9002 1 -1 5 10 183. 907. 453. <
9003 2 -1 5 10 187. 1361. 907. <
9003 1 1 5 -10 187. 1361. 907. <
9004 2 -1 5 -10 187. -454. 907. <
9004 1 1 5 10 187. -454. 907. <
9005 2 1 5 10 183. 454. 454. <
9005 1 -1 5 -10 183. 454. 454. <
9006 2 -3 5 -10 74. -907. 907. <
9006 1 3 5 10 74. -907. 907. <
9007 2 3 5 10 76. 907. 453. <
9007 1 -3 5 -10 76. 907. 453. <
9008 3 -10 -6 2 6635. 3176. 912. o
9008 2 2 6 -10 6635. 3176. 912. o
9008 1 -2 6 10 6635. 3176. 912. o
9009 3 -10 -6 0 90. 454. 454. <
9009 2 0 6 -10 90. 454. 454. <
9009 1 0 6 10 90. 454. 454. <
9010 3 10 -6 0 97. 454. 454. <
9010 2 0 6 10 97. 454. 454. <
9010 1 0 6 -10 97. 454. 454. <
9011 3 -10 -6 -2 6621. 5898. 909. o
9011 2 -2 6 -10 6621. 5898. 909. o
9011 1 2 6 10 6621. 5898. 909. o
9012 2 3 7 -10 59. 907. 453. <
9012 1 -3 7 10 59. 907. 453. <
9013 2 -3 7 10 61. 0. 907. <
9013 1 3 7 -10 61. 0. 907. <
9014 2 1 7 -10 294. 454. 454. <
9014 1 -1 7 10 294. 454. 454. <
9015 2 -1 7 10 293. 454. 907. <
9015 1 1 7 -10 293. 454. 907. <
9016 2 -1 7 -10 293. -907. 907. <
9016 1 1 7 10 293. -907. 907. <
9017 2 1 7 10 294. 907. 453. <
9017 1 -1 7 -10 294. 907. 453. <
9018 2 -3 7 -10 61. -454. 907. <
9018 1 3 7 10 61. -454. 907. <
9019 2 3 7 10 59. 1815. 452. o
9019 1 -3 7 -10 59. 1815. 452. o
9020 3 -10 -8 2 3705. 3629. 454. o
9020 2 2 8 -10 3705. 3629. 454. o
9020 1 -2 8 10 3705. 3629. 454. o
9021 3 10 -8 -2 3703. 3176. 908. o
9021 2 -2 8 10 3703. 3176. 908. o
9021 1 2 8 -10 3703. 3176. 908. o
9022 3 -10 -8 0 460. 454. 454. <
9022 2 0 8 -10 460. 454. 454. <
9022 1 0 8 10 460. 454. 454. <
9023 3 10 -8 0 453. 454. 454. <
9023 2 0 8 10 453. 454. 454. <
9023 1 0 8 -10 453. 454. 454. <
9024 2 3 9 -10 108. 1361. 453. o
9024 1 -3 9 10 108. 1361. 453. o
9025 2 -3 9 10 106. 0. 907. <
9025 1 3 9 -10 106. 0. 907. <
9026 2 1 9 -10 233. 1361. 453. o
9026 1 -1 9 10 233. 1361. 453. o
9027 2 -1 9 10 234. 454. 907. <
9027 1 1 9 -10 234. 454. 907. <
9028 2 -1 9 -10 234. 1815. 907. <
9028 1 1 9 10 234. 1815. 907. <
9029 2 1 9 10 233. -454. 454. <
9029 1 -1 9 -10 233. -454. 454. <
9030 2 -3 9 -10 106. 0. 454. <
9030 1 3 9 10 106. 0. 454. <
9031 2 3 9 10 108. -454. 454. <
9031 1 -3 9 -10 108. -454. 454. <
9032 3 -10 -10 2 1858. 454. 908. <
9032 2 2 10 -10 1858. 454. 908. <
9032 1 -2 10 10 1858. 454. 908. <
9033 3 10 -10 -2 1831. -907. 907. <
9033 2 -2 10 10 1831. -907. 907. <
9033 1 2 10 -10 1831. -907. 907. <
9034 3 -10 -10 0 955. 907. 454. <
9034 2 0 10 -10 955. 907. 454. <
9034 1 0 10 10 955. 907. 454. <
9035 3 10 -10 0 971. -454. 907. <
9035 2 0 10 10 971. -454. 907. <
9035 1 0 10 -10 971. -454. 907. <
9036 2 3 11 -10 81. 454. 454. <
9036 1 -3 11 10 81. 454. 454. <
9037 2 -3 11 10 79. 907. 453. <
9037 1 3 11 -10 79. 907. 453. <
9038 2 1 11 -10 460. 0. 454. <
9038 1 -1 11 10 460. 0. 454. <
9039 2 -1 11 10 463. -2268. 906. <
9039 1 1 11 -10 463. -2268. 906. <
9040 2 -1 11 -10 463. 454. 454. <
9040 1 1 11 10 463. 454. 454. <
9041 2 1 11 10 460. 1361. 453. o
9041 1 -1 11 -10 460. 1361. 453. o
9042 2 -3 11 -10 79. 454. 454. <
9042 1 3 11 10 79. 454. 454. <
9043 2 3 11 10 81. 454. 454. <
9043 1 -3 11 -10 81. 454. 454. <
9044 3 -10 -12 2 125858. 135643. 1613. o
9044 2 2 12 -10 125858. 135643. 1613. o
9044 1 -2 12 10 125858. 135643. 1613. o
9045 3 -10 -12 0 30263. 24497. 951. o
9045 2 0 12 -10 30263. 24497. 951. o
9045 1 0 12 10 30263. 24497. 951. o
9046 3 -10 -12 -2 125662. 104341. 1766. o
9046 2 -2 12 -10 125662. 104341. 1766. o
9046 1 2 12 10 125662. 104341. 1766. o
9047 2 3 13 -10 62. 454. 454. <
9047 1 -3 13 10 62. 454. 454. <
9048 2 -3 13 10 63. -454. 454. <
9048 1 3 13 -10 63. -454. 454. <
9049 2 1 13 -10 156. 454. 454. <
9049 1 -1 13 10 156. 454. 454. <
9050 2 -1 13 10 155. 907. 453. <
9050 1 1 13 -10 155. 907. 453. <
9051 2 -1 13 -10 155. 454. 454. <
9051 1 1 13 10 155. 454. 454. <
9052 2 1 13 10 156. 454. 454. <
9052 1 -1 13 -10 156. 454. 454. <
9053 2 -3 13 -10 63. 454. 454. <
9053 1 3 13 10 63. 454. 454. <
9054 2 3 13 10 62. 907. 453. <
9054 1 -3 13 -10 62. 907. 453. <
9055 3 -10 -14 2 10421. 6351. 472. o
9055 2 2 14 -10 10421. 6351. 472. o
9055 1 -2 14 10 10421. 6351. 472. o
9056 3 -10 -14 0 2770. 1815. 455. o
9056 2 0 14 -10 2770. 1815. 455. o
9056 1 0 14 10 2770. 1815. 455. o
9057 2 3 15 -10 216. 1361. 453. o
9057 1 -3 15 10 216. 1361. 453. o
9058 2 -3 15 10 216. 454. 907. <
9058 1 3 15 -10 216. 454. 907. <
9059 2 1 15 -10 91. 907. 453. <
9059 1 -1 15 10 91. 907. 453. <
9060 2 -1 15 10 91. 1361. 453. o
9060 1 1 15 -10 91. 1361. 453. o
9061 2 -1 15 -10 91. 1815. 452. o
9061 1 1 15 10 91. 1815. 452. o
9062 2 1 15 10 91. 454. 454. <
9062 1 -1 15 -10 91. 454. 454. <
9063 2 -3 15 -10 216. 454. 454. <
9063 1 3 15 10 216. 454. 454. <
9064 2 3 15 10 216. -454. 454. <
9064 1 -3 15 -10 216. -454. 454. <
9065 3 -10 -16 2 4877. 3629. 909. o
9065 2 2 16 -10 4877. 3629. 909. o
9065 1 -2 16 10 4877. 3629. 909. o
9066 3 10 -16 -2 4862. 4537. 908. o
9066 2 -2 16 10 4862. 4537. 908. o
9066 1 2 16 -10 4862. 4537. 908. o
9067 3 -10 -16 0 576. 454. 454. <
9067 2 0 16 -10 576. 454. 454. <
9067 1 0 16 10 576. 454. 454. <
9068 3 10 -16 0 575. 1815. 453. o
9068 2 0 16 10 575. 1815. 453. o
9068 1 0 16 -10 575. 1815. 453. o
9069 3 -10 -16 -2 4862. 4990. 907. o
9069 2 -2 16 -10 4862. 4990. 907. o
9069 1 2 16 10 4862. 4990. 907. o
9070 3 10 -16 2 4878. 6805. 447. o
9070 2 2 16 10 4878. 6805. 447. o
9070 1 -2 16 -10 4878. 6805. 447. o
9071 2 3 17 -10 486. 907. 453. <
9071 1 -3 17 10 486. 907. 453. <
9072 2 -3 17 10 479. 907. 453. <
9072 1 3 17 -10 479. 907. 453. <
9073 2 1 17 -10 501. -454. 454. <
9073 1 -1 17 10 501. -454. 454. <
9074 2 -1 17 10 505. -907. 453. <
9074 1 1 17 -10 505. -907. 453. <
9075 2 -1 17 -10 505. 907. 453. <
9075 1 1 17 10 505. 907. 453. <
9076 2 1 17 10 501. 454. 454. <
9076 1 -1 17 -10 501. 454. 454. <
9077 2 -3 17 -10 479. 907. 453. <
9077 1 3 17 10 479. 907. 453. <
9078 2 3 17 10 486. 907. 453. <
9078 1 -3 17 -10 486. 907. 453. <
9079 3 -10 -18 2 4676. 5898. 905. o
9079 2 2 18 -10 4676. 5898. 905. o
9079 1 -2 18 10 4676. 5898. 905. o
9080 3 10 -18 -2 4665. 4990. 907. o
9080 2 -2 18 10 4665. 4990. 907. o
9080 1 2 18 -10 4665. 4990. 907. o
9081 3 -10 -18 0 347. 0. 454. <
9081 2 0 18 -10 347. 0. 454. <
9081 1 0 18 10 347. 0. 454. <
9082 3 10 -18 0 352. 1361. 453. o
9082 2 0 18 10 352. 1361. 453. o
9082 1 0 18 -10 352. 1361. 453. o
9083 3 -10 -18 -2 4670. 4083. 908. o
9083 2 -2 18 -10 4670. 4083. 908. o
9083 1 2 18 10 4670. 4083. 908. o
9084 3 10 -18 2 4671. 4083. 455. o
9084 2 2 18 10 4671. 4083. 455. o
9084 1 -2 18 -10 4671. 4083. 455. o
9085 2 3 19 -10 723. 907. 454. <
9085 1 -3 19 10 723. 907. 454. <
9086 2 -3 19 10 729. 907. 454. <
9086 1 3 19 -10 729. 907. 454. <
9087 2 1 19 -10 160. -454. 454. <
9087 1 -1 19 10 160. -454. 454. <
9088 2 -1 19 10 158. 907. 453. <
9088 1 1 19 -10 158. 907. 453. <
9089 2 -1 19 -10 158. 454. 454. <
9089 1 1 19 10 158. 454. 454. <
9090 2 1 19 10 160. 907. 453. <
9090 1 -1 19 -10 160. 907. 453. <
9091 2 -3 19 -10 729. 907. 454. <
9091 1 3 19 10 729. 907. 454. <
9092 2 3 19 10 723. -454. 907. <
9092 1 -3 19 -10 723. -454. 907. <
9093 3 -10 -20 2 2236. 1815. 454. o
9093 2 2 20 -10 2236. 1815. 454. o
9093 1 -2 20 10 2236. 1815. 454. o
9094 3 10 -20 -2 2239. 2268. 907. o
9094 2 -2 20 10 2239. 2268. 907. o
9094 1 2 20 -10 2239. 2268. 907. o
9095 3 -10 -20 0 1050. 907. 454. <
9095 2 0 20 -10 1050. 907. 454. <
9095 1 0 20 10 1050. 907. 454. <
9096 3 10 -20 0 1044. 1361. 453. o
9096 2 0 20 10 1044. 1361. 453. o
9096 1 0 20 -10 1044. 1361. 453. o
9097 3 -10 -20 -2 2234. 3176. 452. o
9097 2 -2 20 -10 2234. 3176. 452. o
9097 1 2 20 10 2234. 3176. 452. o
9098 3 10 -20 2 2241. 2268. 454. o
9098 2 2 20 10 2241. 2268. 454. o
9098 1 -2 20 -10 2241. 2268. 454. o
9099 2 1 21 -10 253. 907. 453. <
9099 1 -1 21 10 253. 907. 453. <
9100 2 -1 21 10 256. -907. 453. <
9100 1 1 21 -10 256. -907. 453. <
9101 2 -1 21 -10 256. 907. 453. <
9101 1 1 21 10 256. 907. 453. <
9102 2 1 21 10 253. 454. 454. <
9102 1 -1 21 -10 253. 454. 454. <
9103 3 -10 -22 2 705. 1361. 907. <
9103 2 2 22 -10 705. 1361. 907. <
9103 1 -2 22 10 705. 1361. 907. <
9104 3 10 -22 -2 702. 1361. 453. o
9104 2 -2 22 10 702. 1361. 453. o
9104 1 2 22 -10 702. 1361. 453. o
9105 3 -10 -22 0 1378. 907. 454. <
9105 2 0 22 -10 1378. 907. 454. <
9105 1 0 22 10 1378. 907. 454. <
9106 3 10 -22 0 1385. 1361. 454. o
9106 2 0 22 10 1385. 1361. 454. o
9106 1 0 22 -10 1385. 1361. 454. o
9107 3 -10 -22 -2 708. -1815. 907. <
9107 2 -2 22 -10 708. -1815. 907. <
9107 1 2 22 10 708. -1815. 907. <
9108 3 10 -22 2 699. 0. 454. <
9108 2 2 22 10 699. 0. 454. <
9108 1 -2 22 -10 699. 0. 454. <
9109 2 1 23 -10 48. 454. 454. <
9109 1 -1 23 10 48. 454. 454. <
9110 2 -1 23 10 50. 907. 453. <
9110 1 1 23 -10 50. 907. 453. <
9111 2 -1 23 -10 50. 0. 454. <
9111 1 1 23 10 50. 0. 454. <
9112 2 1 23 10 48. 907. 453. <
9112 1 -1 23 -10 48. 907. 453. <
9113 3 -10 -24 2 57198. 52624. 1409. o
9113 2 2 24 -10 57198. 52624. 1409. o
9113 1 -2 24 10 57198. 52624. 1409. o
9114 3 10 -24 -2 57056. 49448. 1436. o
9114 2 -2 24 10 57056. 49448. 1436. o
9114 1 2 24 -10 57056. 49448. 1436. o
9115 3 -10 -24 0 15754. 13610. 916. o
9115 2 0 24 -10 15754. 13610. 916. o
9115 1 0 24 10 15754. 13610. 916. o
9116 3 10 -24 0 15790. 14971. 911. o
9116 2 0 24 10 15790. 14971. 911. o
9116 1 0 24 -10 15790. 14971. 911. o
9117 3 10 -24 2 57165. 58522. 1345. o
9117 2 2 24 10 57165. 58522. 1345. o
9117 1 -2 24 -10 57165. 58522. 1345. o
9118 2 1 25 -10 148. 454. 454. <
9118 1 -1 25 10 148. 454. 454. <
9119 2 -1 25 10 147. 1361. 453. o
9119 1 1 25 -10 147. 1361. 453. o
9120 2 -1 25 -10 147. -907. 453. <
9120 1 1 25 10 147. -907. 453. <
9121 2 1 25 10 148. -454. 454. <
9121 1 -1 25 -10 148. -454. 454. <
9122 3 -10 -26 2 9097. 4537. 470. o
9122 2 2 26 -10 9097. 4537. 470. o
9122 1 -2 26 10 9097. 4537. 470. o
9123 3 10 -26 -2 9062. 7258. 911. o
9123 2 -2 26 10 9062. 7258. 911. o
9123 1 2 26 -10 9062. 7258. 911. o
9124 3 -10 -26 0 2684. 3629. 906. o
9124 2 0 26 -10 2684. 3629. 906. o
9124 1 0 26 10 2684. 3629. 906. o
9125 3 10 -26 0 2700. 2268. 908. o
9125 2 0 26 10 2700. 2268. 908. o
9125 1 0 26 -10 2700. 2268. 908. o
9126 3 10 -26 2 9083. 4537. 915. o
9126 2 2 26 10 9083. 4537. 915. o
9126 1 -2 26 -10 9083. 4537. 915. o
9127 2 1 27 -10 107. 1361. 453. o
9127 1 -1 27 10 107. 1361. 453. o
9128 2 -1 27 10 108. 454. 454. <
9128 1 1 27 -10 108. 454. 454. <
9129 2 1 27 10 107. 454. 454. <
9129 1 -1 27 -10 107. 454. 454. <
9130 3 -10 -28 2 2009. 2722. 453. o
9130 2 2 28 -10 2009. 2722. 453. o
9130 1 -2 28 10 2009. 2722. 453. o
9131 3 10 -28 -2 1997. 2268. 907. o
9131 2 -2 28 10 1997. 2268. 907. o
9131 1 2 28 -10 1997. 2268. 907. o
9132 3 -10 -28 0 329. 907. 453. <
9132 2 0 28 -10 329. 907. 453. <
9132 1 0 28 10 329. 907. 453. <
9133 3 10 -28 0 330. 907. 453. <
9133 2 0 28 10 330. 907. 453. <
9133 1 0 28 -10 330. 907. 453. <
9134 3 -10 -28 -2 1998. 0. 908. <
9134 2 -2 28 -10 1998. 0. 908. <
9134 1 2 28 10 1998. 0. 908. <
9135 3 10 -28 2 2008. 2722. 907. o
9135 2 2 28 10 2008. 2722. 907. o
9135 1 -2 28 -10 2008. 2722. 907. o
9136 2 1 29 -10 134. -454. 454. <
9136 1 -1 29 10 134. -454. 454. <
9137 2 -1 29 10 137. -454. 454. <
9137 1 1 29 -10 137. -454. 454. <
9138 2 1 29 10 134. 454. 454. <
9138 1 -1 29 -10 134. 454. 454. <
9139 3 -10 -30 0 222. 907. 453. <
9139 2 0 30 -10 222. 907. 453. <
9139 1 0 30 10 222. 907. 453. <
9140 3 10 -30 0 224. 454. 454. <
9140 2 0 30 10 224. 454. 454. <
9140 1 0 30 -10 224. 454. 454. <
9141 2 1 31 -10 392. 907. 453. <
9141 1 -1 31 10 392. 907. 453. <
9142 2 -1 31 10 390. 907. 453. <
9142 1 1 31 -10 390. 907. 453. <
9143 2 -1 31 -10 390. 907. 453. <
9143 1 1 31 10 390. 907. 453. <
9144 2 1 31 10 392. 1361. 453. o
9144 1 -1 31 -10 392. 1361. 453. o
9145 3 -10 -32 0 351. 907. 453. <
9145 2 0 32 -10 351. 907. 453. <
9145 1 0 32 10 351. 907. 453. <
9146 3 10 -32 0 348. 907. 453. <
9146 2 0 32 10 348. 907. 453. <
9146 1 0 32 -10 348. 907. 453. <

_exptl_crystal_recrystallization_method 
'Re-crystallisation from solvent: conc. Hydroiodic acid'
